FoamFile
{
	version	2.0;
	format	ascii;
	class	dictionary;
	location	"system";
	object	fvOptions;
}porosityInzone0
{
	active	true;
	type	explicitPorositySource;
	explicitPorositySourceCoeffs
	{
		type	DarcyForchheimer;
		DarcyForchheimerCoeffs
		{
			d	(0.0 0.0 0.0);
			f	(2.256016e+00 6.612460e-01 6.612460e-01);
			coordinateSystem
			{
				type	cartesian;
				origin	(0.0 0.0 0.0);
				coordinateRotation
				{
					type	axesRotation;
					e1	( -3.270262e-01 1.756626e-02 9.448288e-01 );
					e2	( -9.999086e-01 -4.027120e-03 1.290600e-02 );
				}
			}
			rho	rho;
			mu	mu;
		}
		selectionMode	cellZone;
		cellZone	zone0;
	}
}
porosityInzone1
{
	active	true;
	type	explicitPorositySource;
	explicitPorositySourceCoeffs
	{
		type	DarcyForchheimer;
		DarcyForchheimerCoeffs
		{
			d	(0.0 0.0 0.0);
			f	(2.190397e+00 6.420129e-01 6.420129e-01);
			coordinateSystem
			{
				type	cartesian;
				origin	(0.0 0.0 0.0);
				coordinateRotation
				{
					type	axesRotation;
					e1	( -1.086844e-01 -7.086567e-02 9.904111e-01 );
					e2	( -9.997230e-01 1.777703e-02 1.542428e-02 );
				}
			}
			rho	rho;
			mu	mu;
		}
		selectionMode	cellZone;
		cellZone	zone1;
	}
}
porosityInzone2
{
	active	true;
	type	explicitPorositySource;
	explicitPorositySourceCoeffs
	{
		type	DarcyForchheimer;
		DarcyForchheimerCoeffs
		{
			d	(0.0 0.0 0.0);
			f	(2.037596e+00 5.972265e-01 5.972265e-01);
			coordinateSystem
			{
				type	cartesian;
				origin	(0.0 0.0 0.0);
				coordinateRotation
				{
					type	axesRotation;
					e1	( -5.248006e-02 -9.295471e-03 9.947753e-01 );
					e2	( -9.990825e-01 3.972935e-02 1.599195e-02 );
				}
			}
			rho	rho;
			mu	mu;
		}
		selectionMode	cellZone;
		cellZone	zone2;
	}
}
porosityInzone3
{
	active	true;
	type	explicitPorositySource;
	explicitPorositySourceCoeffs
	{
		type	DarcyForchheimer;
		DarcyForchheimerCoeffs
		{
			d	(0.0 0.0 0.0);
			f	(2.071552e+00 6.071790e-01 6.071790e-01);
			coordinateSystem
			{
				type	cartesian;
				origin	(0.0 0.0 0.0);
				coordinateRotation
				{
					type	axesRotation;
					e1	( -6.922270e-02 -3.151065e-02 9.881534e-01 );
					e2	( -9.979790e-01 6.156087e-02 1.575674e-02 );
				}
			}
			rho	rho;
			mu	mu;
		}
		selectionMode	cellZone;
		cellZone	zone3;
	}
}
porosityInzone4
{
	active	true;
	type	explicitPorositySource;
	explicitPorositySourceCoeffs
	{
		type	DarcyForchheimer;
		DarcyForchheimerCoeffs
		{
			d	(0.0 0.0 0.0);
			f	(2.255648e+00 6.611381e-01 6.611381e-01);
			coordinateSystem
			{
				type	cartesian;
				origin	(0.0 0.0 0.0);
				coordinateRotation
				{
					type	axesRotation;
					e1	( -9.847116e-02 -1.110996e-01 9.722382e-01 );
					e2	( -9.964341e-01 8.274537e-02 1.650027e-02 );
				}
			}
			rho	rho;
			mu	mu;
		}
		selectionMode	cellZone;
		cellZone	zone4;
	}
}
porosityInzone5
{
	active	true;
	type	explicitPorositySource;
	explicitPorositySourceCoeffs
	{
		type	DarcyForchheimer;
		DarcyForchheimerCoeffs
		{
			d	(0.0 0.0 0.0);
			f	(2.163146e+00 6.340255e-01 6.340255e-01);
			coordinateSystem
			{
				type	cartesian;
				origin	(0.0 0.0 0.0);
				coordinateRotation
				{
					type	axesRotation;
					e1	( -4.293454e-02 -1.028662e-01 9.666794e-01 );
					e2	( -9.945490e-01 1.026260e-01 1.844652e-02 );
				}
			}
			rho	rho;
			mu	mu;
		}
		selectionMode	cellZone;
		cellZone	zone5;
	}
}
porosityInzone6
{
	active	true;
	type	explicitPorositySource;
	explicitPorositySourceCoeffs
	{
		type	DarcyForchheimer;
		DarcyForchheimerCoeffs
		{
			d	(0.0 0.0 0.0);
			f	(2.210045e+00 6.477719e-01 6.477719e-01);
			coordinateSystem
			{
				type	cartesian;
				origin	(0.0 0.0 0.0);
				coordinateRotation
				{
					type	axesRotation;
					e1	( 9.778266e-02 7.732007e-02 9.441991e-01 );
					e2	( -9.924077e-01 1.215037e-01 1.907488e-02 );
				}
			}
			rho	rho;
			mu	mu;
		}
		selectionMode	cellZone;
		cellZone	zone6;
	}
}
porosityInzone7
{
	active	true;
	type	explicitPorositySource;
	explicitPorositySourceCoeffs
	{
		type	DarcyForchheimer;
		DarcyForchheimerCoeffs
		{
			d	(0.0 0.0 0.0);
			f	(2.491007e+00 7.301228e-01 7.301228e-01);
			coordinateSystem
			{
				type	cartesian;
				origin	(0.0 0.0 0.0);
				coordinateRotation
				{
					type	axesRotation;
					e1	( 2.828647e-01 3.422115e-01 7.952000e-01 );
					e2	( -9.900860e-01 1.395095e-01 1.633598e-02 );
				}
			}
			rho	rho;
			mu	mu;
		}
		selectionMode	cellZone;
		cellZone	zone7;
	}
}
porosityInzone8
{
	active	true;
	type	explicitPorositySource;
	explicitPorositySourceCoeffs
	{
		type	DarcyForchheimer;
		DarcyForchheimerCoeffs
		{
			d	(0.0 0.0 0.0);
			f	(2.849191e+00 8.351076e-01 8.351076e-01);
			coordinateSystem
			{
				type	cartesian;
				origin	(0.0 0.0 0.0);
				coordinateRotation
				{
					type	axesRotation;
					e1	( 4.253578e-01 5.565086e-01 5.255392e-01 );
					e2	( -9.878520e-01 1.549980e-01 1.113852e-02 );
				}
			}
			rho	rho;
			mu	mu;
		}
		selectionMode	cellZone;
		cellZone	zone8;
	}
}
porosityInzone9
{
	active	true;
	type	explicitPorositySource;
	explicitPorositySourceCoeffs
	{
		type	DarcyForchheimer;
		DarcyForchheimerCoeffs
		{
			d	(0.0 0.0 0.0);
			f	(3.021900e+00 8.857292e-01 8.857292e-01);
			coordinateSystem
			{
				type	cartesian;
				origin	(0.0 0.0 0.0);
				coordinateRotation
				{
					type	axesRotation;
					e1	( 4.200728e-01 5.847069e-01 4.547972e-01 );
					e2	( -9.859179e-01 1.671255e-01 5.908229e-03 );
				}
			}
			rho	rho;
			mu	mu;
		}
		selectionMode	cellZone;
		cellZone	zone9;
	}
}
porosityInzone10
{
	active	true;
	type	explicitPorositySource;
	explicitPorositySourceCoeffs
	{
		type	DarcyForchheimer;
		DarcyForchheimerCoeffs
		{
			d	(0.0 0.0 0.0);
			f	(2.562522e+00 7.510840e-01 7.510840e-01);
			coordinateSystem
			{
				type	cartesian;
				origin	(0.0 0.0 0.0);
				coordinateRotation
				{
					type	axesRotation;
					e1	( 3.070076e-01 3.760317e-01 5.583409e-01 );
					e2	( -9.837113e-01 1.797456e-01 1.880315e-03 );
				}
			}
			rho	rho;
			mu	mu;
		}
		selectionMode	cellZone;
		cellZone	zone10;
	}
}
porosityInzone11
{
	active	true;
	type	explicitPorositySource;
	explicitPorositySourceCoeffs
	{
		type	DarcyForchheimer;
		DarcyForchheimerCoeffs
		{
			d	(0.0 0.0 0.0);
			f	(2.064769e+00 6.051909e-01 6.051909e-01);
			coordinateSystem
			{
				type	cartesian;
				origin	(0.0 0.0 0.0);
				coordinateRotation
				{
					type	axesRotation;
					e1	( 8.566079e-02 4.625319e-02 6.227579e-01 );
					e2	( -9.810238e-01 1.938733e-01 2.316796e-03 );
				}
			}
			rho	rho;
			mu	mu;
		}
		selectionMode	cellZone;
		cellZone	zone11;
	}
}
porosityInzone12
{
	active	true;
	type	explicitPorositySource;
	explicitPorositySourceCoeffs
	{
		type	DarcyForchheimer;
		DarcyForchheimerCoeffs
		{
			d	(0.0 0.0 0.0);
			f	(1.585309e+00 4.646595e-01 4.646595e-01);
			coordinateSystem
			{
				type	cartesian;
				origin	(0.0 0.0 0.0);
				coordinateRotation
				{
					type	axesRotation;
					e1	( 1.554737e-02 5.321046e-02 7.157273e-01 );
					e2	( -9.778290e-01 2.093332e-01 5.486367e-03 );
				}
			}
			rho	rho;
			mu	mu;
		}
		selectionMode	cellZone;
		cellZone	zone12;
	}
}
porosityInzone13
{
	active	true;
	type	explicitPorositySource;
	explicitPorositySourceCoeffs
	{
		type	DarcyForchheimer;
		DarcyForchheimerCoeffs
		{
			d	(0.0 0.0 0.0);
			f	(2.709339e+00 7.941167e-01 7.941167e-01);
			coordinateSystem
			{
				type	cartesian;
				origin	(0.0 0.0 0.0);
				coordinateRotation
				{
					type	axesRotation;
					e1	( 1.895920e-01 3.881376e-01 6.803469e-01 );
					e2	( -9.720597e-01 2.347188e-01 2.656565e-03 );
				}
			}
			rho	rho;
			mu	mu;
		}
		selectionMode	cellZone;
		cellZone	zone13;
	}
}
porosityInzone14
{
	active	true;
	type	explicitPorositySource;
	explicitPorositySourceCoeffs
	{
		type	DarcyForchheimer;
		DarcyForchheimerCoeffs
		{
			d	(0.0 0.0 0.0);
			f	(3.036244e+00 8.899335e-01 8.899335e-01);
			coordinateSystem
			{
				type	cartesian;
				origin	(0.0 0.0 0.0);
				coordinateRotation
				{
					type	axesRotation;
					e1	( 2.276387e-01 9.490537e-01 1.150410e-01 );
					e2	( -9.731784e-01 2.299874e-01 5.431893e-03 );
				}
			}
			rho	rho;
			mu	mu;
		}
		selectionMode	cellZone;
		cellZone	zone14;
	}
}
porosityInzone15
{
	active	true;
	type	explicitPorositySource;
	explicitPorositySourceCoeffs
	{
		type	DarcyForchheimer;
		DarcyForchheimerCoeffs
		{
			d	(0.0 0.0 0.0);
			f	(3.043749e+00 8.921334e-01 8.921334e-01);
			coordinateSystem
			{
				type	cartesian;
				origin	(0.0 0.0 0.0);
				coordinateRotation
				{
					type	axesRotation;
					e1	( 2.094103e-01 9.767759e-01 -4.420199e-02 );
					e2	( -9.754687e-01 2.201371e-01 6.435942e-04 );
				}
			}
			rho	rho;
			mu	mu;
		}
		selectionMode	cellZone;
		cellZone	zone15;
	}
}
porosityInzone16
{
	active	true;
	type	explicitPorositySource;
	explicitPorositySourceCoeffs
	{
		type	DarcyForchheimer;
		DarcyForchheimerCoeffs
		{
			d	(0.0 0.0 0.0);
			f	(2.808967e+00 8.233180e-01 8.233180e-01);
			coordinateSystem
			{
				type	cartesian;
				origin	(0.0 0.0 0.0);
				coordinateRotation
				{
					type	axesRotation;
					e1	( 2.657031e-01 9.321469e-01 -2.104459e-01 );
					e2	( -9.734885e-01 2.286969e-01 -4.228906e-03 );
				}
			}
			rho	rho;
			mu	mu;
		}
		selectionMode	cellZone;
		cellZone	zone16;
	}
}
porosityInzone17
{
	active	true;
	type	explicitPorositySource;
	explicitPorositySourceCoeffs
	{
		type	DarcyForchheimer;
		DarcyForchheimerCoeffs
		{
			d	(0.0 0.0 0.0);
			f	(2.477821e+00 7.262578e-01 7.262578e-01);
			coordinateSystem
			{
				type	cartesian;
				origin	(0.0 0.0 0.0);
				coordinateRotation
				{
					type	axesRotation;
					e1	( 2.553353e-01 5.595218e-01 -5.408644e-01 );
					e2	( -9.727355e-01 2.319174e-01 -2.113396e-04 );
				}
			}
			rho	rho;
			mu	mu;
		}
		selectionMode	cellZone;
		cellZone	zone17;
	}
}
porosityInzone18
{
	active	true;
	type	explicitPorositySource;
	explicitPorositySourceCoeffs
	{
		type	DarcyForchheimer;
		DarcyForchheimerCoeffs
		{
			d	(0.0 0.0 0.0);
			f	(2.642355e+00 7.744833e-01 7.744833e-01);
			coordinateSystem
			{
				type	cartesian;
				origin	(0.0 0.0 0.0);
				coordinateRotation
				{
					type	axesRotation;
					e1	( 1.673506e-01 3.396993e-01 -5.907836e-01 );
					e2	( -9.753248e-01 2.207113e-01 -5.299100e-03 );
				}
			}
			rho	rho;
			mu	mu;
		}
		selectionMode	cellZone;
		cellZone	zone18;
	}
}
porosityInzone19
{
	active	true;
	type	explicitPorositySource;
	explicitPorositySourceCoeffs
	{
		type	DarcyForchheimer;
		DarcyForchheimerCoeffs
		{
			d	(0.0 0.0 0.0);
			f	(2.632020e+00 7.714540e-01 7.714540e-01);
			coordinateSystem
			{
				type	cartesian;
				origin	(0.0 0.0 0.0);
				coordinateRotation
				{
					type	axesRotation;
					e1	( 1.535631e-01 3.004165e-01 -5.606350e-01 );
					e2	( -9.784059e-01 2.064466e-01 -1.008524e-02 );
				}
			}
			rho	rho;
			mu	mu;
		}
		selectionMode	cellZone;
		cellZone	zone19;
	}
}
porosityInzone20
{
	active	true;
	type	explicitPorositySource;
	explicitPorositySourceCoeffs
	{
		type	DarcyForchheimer;
		DarcyForchheimerCoeffs
		{
			d	(0.0 0.0 0.0);
			f	(2.351894e+00 6.893482e-01 6.893482e-01);
			coordinateSystem
			{
				type	cartesian;
				origin	(0.0 0.0 0.0);
				coordinateRotation
				{
					type	axesRotation;
					e1	( 1.643359e-01 3.225293e-01 -6.506693e-01 );
					e2	( -9.810412e-01 1.932176e-01 -1.500563e-02 );
				}
			}
			rho	rho;
			mu	mu;
		}
		selectionMode	cellZone;
		cellZone	zone20;
	}
}
porosityInzone21
{
	active	true;
	type	explicitPorositySource;
	explicitPorositySourceCoeffs
	{
		type	DarcyForchheimer;
		DarcyForchheimerCoeffs
		{
			d	(0.0 0.0 0.0);
			f	(2.668657e+00 7.821925e-01 7.821925e-01);
			coordinateSystem
			{
				type	cartesian;
				origin	(0.0 0.0 0.0);
				coordinateRotation
				{
					type	axesRotation;
					e1	( 1.928284e-01 3.971707e-01 -7.041602e-01 );
					e2	( -9.836804e-01 1.786860e-01 -2.107658e-02 );
				}
			}
			rho	rho;
			mu	mu;
		}
		selectionMode	cellZone;
		cellZone	zone21;
	}
}
porosityInzone22
{
	active	true;
	type	explicitPorositySource;
	explicitPorositySourceCoeffs
	{
		type	DarcyForchheimer;
		DarcyForchheimerCoeffs
		{
			d	(0.0 0.0 0.0);
			f	(2.682082e+00 7.861275e-01 7.861275e-01);
			coordinateSystem
			{
				type	cartesian;
				origin	(0.0 0.0 0.0);
				coordinateRotation
				{
					type	axesRotation;
					e1	( 2.111351e-01 4.556803e-01 -7.231510e-01 );
					e2	( -9.859339e-01 1.644414e-01 -2.989008e-02 );
				}
			}
			rho	rho;
			mu	mu;
		}
		selectionMode	cellZone;
		cellZone	zone22;
	}
}
porosityInzone23
{
	active	true;
	type	explicitPorositySource;
	explicitPorositySourceCoeffs
	{
		type	DarcyForchheimer;
		DarcyForchheimerCoeffs
		{
			d	(0.0 0.0 0.0);
			f	(2.110654e+00 6.186400e-01 6.186400e-01);
			coordinateSystem
			{
				type	cartesian;
				origin	(0.0 0.0 0.0);
				coordinateRotation
				{
					type	axesRotation;
					e1	( 1.369768e-01 3.654238e-01 -8.134579e-01 );
					e2	( -9.880283e-01 1.492320e-01 -3.911408e-02 );
				}
			}
			rho	rho;
			mu	mu;
		}
		selectionMode	cellZone;
		cellZone	zone23;
	}
}
porosityInzone24
{
	active	true;
	type	explicitPorositySource;
	explicitPorositySourceCoeffs
	{
		type	DarcyForchheimer;
		DarcyForchheimerCoeffs
		{
			d	(0.0 0.0 0.0);
			f	(2.206927e+00 6.468578e-01 6.468578e-01);
			coordinateSystem
			{
				type	cartesian;
				origin	(0.0 0.0 0.0);
				coordinateRotation
				{
					type	axesRotation;
					e1	( -5.603034e-02 1.511762e-01 -9.220065e-01 );
					e2	( -9.901670e-01 1.318972e-01 -4.660889e-02 );
				}
			}
			rho	rho;
			mu	mu;
		}
		selectionMode	cellZone;
		cellZone	zone24;
	}
}
porosityInzone25
{
	active	true;
	type	explicitPorositySource;
	explicitPorositySourceCoeffs
	{
		type	DarcyForchheimer;
		DarcyForchheimerCoeffs
		{
			d	(0.0 0.0 0.0);
			f	(2.238818e+00 6.562054e-01 6.562054e-01);
			coordinateSystem
			{
				type	cartesian;
				origin	(0.0 0.0 0.0);
				coordinateRotation
				{
					type	axesRotation;
					e1	( -1.752381e-01 -3.149104e-02 -9.468201e-01 );
					e2	( -9.921914e-01 1.136611e-01 -5.135625e-02 );
				}
			}
			rho	rho;
			mu	mu;
		}
		selectionMode	cellZone;
		cellZone	zone25;
	}
}
porosityInzone26
{
	active	true;
	type	explicitPorositySource;
	explicitPorositySourceCoeffs
	{
		type	DarcyForchheimer;
		DarcyForchheimerCoeffs
		{
			d	(0.0 0.0 0.0);
			f	(2.223770e+00 6.517946e-01 6.517946e-01);
			coordinateSystem
			{
				type	cartesian;
				origin	(0.0 0.0 0.0);
				coordinateRotation
				{
					type	axesRotation;
					e1	( -2.128677e-01 -5.189193e-02 -9.514846e-01 );
					e2	( -9.940748e-01 9.473244e-02 -5.330231e-02 );
				}
			}
			rho	rho;
			mu	mu;
		}
		selectionMode	cellZone;
		cellZone	zone26;
	}
}
porosityInzone27
{
	active	true;
	type	explicitPorositySource;
	explicitPorositySourceCoeffs
	{
		type	DarcyForchheimer;
		DarcyForchheimerCoeffs
		{
			d	(0.0 0.0 0.0);
			f	(1.637069e+00 4.798305e-01 4.798305e-01);
			coordinateSystem
			{
				type	cartesian;
				origin	(0.0 0.0 0.0);
				coordinateRotation
				{
					type	axesRotation;
					e1	( -1.177984e-01 1.076905e-01 -9.714604e-01 );
					e2	( -9.956133e-01 7.437486e-02 -5.676703e-02 );
				}
			}
			rho	rho;
			mu	mu;
		}
		selectionMode	cellZone;
		cellZone	zone27;
	}
}
porosityInzone28
{
	active	true;
	type	explicitPorositySource;
	explicitPorositySourceCoeffs
	{
		type	DarcyForchheimer;
		DarcyForchheimerCoeffs
		{
			d	(0.0 0.0 0.0);
			f	(2.254411e+00 6.607755e-01 6.607755e-01);
			coordinateSystem
			{
				type	cartesian;
				origin	(0.0 0.0 0.0);
				coordinateRotation
				{
					type	axesRotation;
					e1	( 1.080997e-01 3.037811e-01 -9.379201e-01 );
					e2	( -9.966026e-01 5.348330e-02 -6.263179e-02 );
				}
			}
			rho	rho;
			mu	mu;
		}
		selectionMode	cellZone;
		cellZone	zone28;
	}
}
porosityInzone29
{
	active	true;
	type	explicitPorositySource;
	explicitPorositySourceCoeffs
	{
		type	DarcyForchheimer;
		DarcyForchheimerCoeffs
		{
			d	(0.0 0.0 0.0);
			f	(2.302197e+00 6.747820e-01 6.747820e-01);
			coordinateSystem
			{
				type	cartesian;
				origin	(0.0 0.0 0.0);
				coordinateRotation
				{
					type	axesRotation;
					e1	( 2.745261e-01 3.595633e-01 -8.885338e-01 );
					e2	( -9.968876e-01 3.367335e-02 -7.128303e-02 );
				}
			}
			rho	rho;
			mu	mu;
		}
		selectionMode	cellZone;
		cellZone	zone29;
	}
}
porosityInzone30
{
	active	true;
	type	explicitPorositySource;
	explicitPorositySourceCoeffs
	{
		type	DarcyForchheimer;
		DarcyForchheimerCoeffs
		{
			d	(0.0 0.0 0.0);
			f	(2.216846e+00 6.497652e-01 6.497652e-01);
			coordinateSystem
			{
				type	cartesian;
				origin	(0.0 0.0 0.0);
				coordinateRotation
				{
					type	axesRotation;
					e1	( 6.019420e-01 7.206607e-02 -7.947063e-01 );
					e2	( -9.968602e-01 1.313958e-02 -7.808429e-02 );
				}
			}
			rho	rho;
			mu	mu;
		}
		selectionMode	cellZone;
		cellZone	zone30;
	}
}
porosityInzone31
{
	active	true;
	type	explicitPorositySource;
	explicitPorositySourceCoeffs
	{
		type	DarcyForchheimer;
		DarcyForchheimerCoeffs
		{
			d	(0.0 0.0 0.0);
			f	(2.648995e+00 7.764296e-01 7.764296e-01);
			coordinateSystem
			{
				type	cartesian;
				origin	(0.0 0.0 0.0);
				coordinateRotation
				{
					type	axesRotation;
					e1	( 3.232028e-01 -3.109642e-01 -8.937665e-01 );
					e2	( -9.972392e-01 -8.499777e-03 -7.376781e-02 );
				}
			}
			rho	rho;
			mu	mu;
		}
		selectionMode	cellZone;
		cellZone	zone31;
	}
}
porosityInzone32
{
	active	true;
	type	explicitPorositySource;
	explicitPorositySourceCoeffs
	{
		type	DarcyForchheimer;
		DarcyForchheimerCoeffs
		{
			d	(0.0 0.0 0.0);
			f	(2.063065e+00 6.046916e-01 6.046916e-01);
			coordinateSystem
			{
				type	cartesian;
				origin	(0.0 0.0 0.0);
				coordinateRotation
				{
					type	axesRotation;
					e1	( 2.366154e-01 -3.751821e-01 -8.948269e-01 );
					e2	( -9.975000e-01 -2.826496e-02 -6.476707e-02 );
				}
			}
			rho	rho;
			mu	mu;
		}
		selectionMode	cellZone;
		cellZone	zone32;
	}
}
porosityInzone33
{
	active	true;
	type	explicitPorositySource;
	explicitPorositySourceCoeffs
	{
		type	DarcyForchheimer;
		DarcyForchheimerCoeffs
		{
			d	(0.0 0.0 0.0);
			f	(2.279676e+00 6.681808e-01 6.681808e-01);
			coordinateSystem
			{
				type	cartesian;
				origin	(0.0 0.0 0.0);
				coordinateRotation
				{
					type	axesRotation;
					e1	( 6.164147e-02 -2.466074e-01 -9.619818e-01 );
					e2	( -9.971603e-01 -4.879145e-02 -5.736434e-02 );
				}
			}
			rho	rho;
			mu	mu;
		}
		selectionMode	cellZone;
		cellZone	zone33;
	}
}
porosityInzone34
{
	active	true;
	type	explicitPorositySource;
	explicitPorositySourceCoeffs
	{
		type	DarcyForchheimer;
		DarcyForchheimerCoeffs
		{
			d	(0.0 0.0 0.0);
			f	(2.216515e+00 6.496683e-01 6.496683e-01);
			coordinateSystem
			{
				type	cartesian;
				origin	(0.0 0.0 0.0);
				coordinateRotation
				{
					type	axesRotation;
					e1	( -1.714980e-01 -5.003865e-02 -9.725257e-01 );
					e2	( -9.961510e-01 -7.016662e-02 -5.253498e-02 );
				}
			}
			rho	rho;
			mu	mu;
		}
		selectionMode	cellZone;
		cellZone	zone34;
	}
}
porosityInzone35
{
	active	true;
	type	explicitPorositySource;
	explicitPorositySourceCoeffs
	{
		type	DarcyForchheimer;
		DarcyForchheimerCoeffs
		{
			d	(0.0 0.0 0.0);
			f	(2.369409e+00 6.944821e-01 6.944821e-01);
			coordinateSystem
			{
				type	cartesian;
				origin	(0.0 0.0 0.0);
				coordinateRotation
				{
					type	axesRotation;
					e1	( -2.674894e-01 1.129534e-01 -9.379020e-01 );
					e2	( -9.946181e-01 -9.076372e-02 -4.996870e-02 );
				}
			}
			rho	rho;
			mu	mu;
		}
		selectionMode	cellZone;
		cellZone	zone35;
	}
}
porosityInzone36
{
	active	true;
	type	explicitPorositySource;
	explicitPorositySourceCoeffs
	{
		type	DarcyForchheimer;
		DarcyForchheimerCoeffs
		{
			d	(0.0 0.0 0.0);
			f	(2.043942e+00 5.990865e-01 5.990865e-01);
			coordinateSystem
			{
				type	cartesian;
				origin	(0.0 0.0 0.0);
				coordinateRotation
				{
					type	axesRotation;
					e1	( -2.366946e-01 1.049906e-01 -9.362556e-01 );
					e2	( -9.927499e-01 -1.097999e-01 -4.890365e-02 );
				}
			}
			rho	rho;
			mu	mu;
		}
		selectionMode	cellZone;
		cellZone	zone36;
	}
}
porosityInzone37
{
	active	true;
	type	explicitPorositySource;
	explicitPorositySourceCoeffs
	{
		type	DarcyForchheimer;
		DarcyForchheimerCoeffs
		{
			d	(0.0 0.0 0.0);
			f	(1.649933e+00 4.836009e-01 4.836009e-01);
			coordinateSystem
			{
				type	cartesian;
				origin	(0.0 0.0 0.0);
				coordinateRotation
				{
					type	axesRotation;
					e1	( -1.142683e-01 -7.466127e-02 -9.384488e-01 );
					e2	( -9.906974e-01 -1.283263e-01 -4.528926e-02 );
				}
			}
			rho	rho;
			mu	mu;
		}
		selectionMode	cellZone;
		cellZone	zone37;
	}
}
porosityInzone38
{
	active	true;
	type	explicitPorositySource;
	explicitPorositySourceCoeffs
	{
		type	DarcyForchheimer;
		DarcyForchheimerCoeffs
		{
			d	(0.0 0.0 0.0);
			f	(2.326381e+00 6.818703e-01 6.818703e-01);
			coordinateSystem
			{
				type	cartesian;
				origin	(0.0 0.0 0.0);
				coordinateRotation
				{
					type	axesRotation;
					e1	( 7.848629e-02 -2.902769e-01 -8.668115e-01 );
					e2	( -9.884927e-01 -1.461747e-01 -3.892588e-02 );
				}
			}
			rho	rho;
			mu	mu;
		}
		selectionMode	cellZone;
		cellZone	zone38;
	}
}
porosityInzone39
{
	active	true;
	type	explicitPorositySource;
	explicitPorositySourceCoeffs
	{
		type	DarcyForchheimer;
		DarcyForchheimerCoeffs
		{
			d	(0.0 0.0 0.0);
			f	(2.653828e+00 7.778460e-01 7.778460e-01);
			coordinateSystem
			{
				type	cartesian;
				origin	(0.0 0.0 0.0);
				coordinateRotation
				{
					type	axesRotation;
					e1	( 1.742280e-01 -3.832404e-01 -7.796029e-01 );
					e2	( -9.862715e-01 -1.622316e-01 -3.081225e-02 );
				}
			}
			rho	rho;
			mu	mu;
		}
		selectionMode	cellZone;
		cellZone	zone39;
	}
}
porosityInzone40
{
	active	true;
	type	explicitPorositySource;
	explicitPorositySourceCoeffs
	{
		type	DarcyForchheimer;
		DarcyForchheimerCoeffs
		{
			d	(0.0 0.0 0.0);
			f	(2.602544e+00 7.628145e-01 7.628145e-01);
			coordinateSystem
			{
				type	cartesian;
				origin	(0.0 0.0 0.0);
				coordinateRotation
				{
					type	axesRotation;
					e1	( 1.801388e-01 -3.447622e-01 -7.205268e-01 );
					e2	( -9.838573e-01 -1.773804e-01 -2.368676e-02 );
				}
			}
			rho	rho;
			mu	mu;
		}
		selectionMode	cellZone;
		cellZone	zone40;
	}
}
porosityInzone41
{
	active	true;
	type	explicitPorositySource;
	explicitPorositySourceCoeffs
	{
		type	DarcyForchheimer;
		DarcyForchheimerCoeffs
		{
			d	(0.0 0.0 0.0);
			f	(2.234672e+00 6.549902e-01 6.549902e-01);
			coordinateSystem
			{
				type	cartesian;
				origin	(0.0 0.0 0.0);
				coordinateRotation
				{
					type	axesRotation;
					e1	( 1.462960e-01 -2.693407e-01 -6.501726e-01 );
					e2	( -9.812207e-01 -1.919480e-01 -1.902179e-02 );
				}
			}
			rho	rho;
			mu	mu;
		}
		selectionMode	cellZone;
		cellZone	zone41;
	}
}
porosityInzone42
{
	active	true;
	type	explicitPorositySource;
	explicitPorositySourceCoeffs
	{
		type	DarcyForchheimer;
		DarcyForchheimerCoeffs
		{
			d	(0.0 0.0 0.0);
			f	(2.110887e+00 6.187083e-01 6.187083e-01);
			coordinateSystem
			{
				type	cartesian;
				origin	(0.0 0.0 0.0);
				coordinateRotation
				{
					type	axesRotation;
					e1	( 1.489589e-01 -2.995247e-01 -6.620919e-01 );
					e2	( -9.781703e-01 -2.072397e-01 -1.531336e-02 );
				}
			}
			rho	rho;
			mu	mu;
		}
		selectionMode	cellZone;
		cellZone	zone42;
	}
}
porosityInzone43
{
	active	true;
	type	explicitPorositySource;
	explicitPorositySourceCoeffs
	{
		type	DarcyForchheimer;
		DarcyForchheimerCoeffs
		{
			d	(0.0 0.0 0.0);
			f	(2.720632e+00 7.974265e-01 7.974265e-01);
			coordinateSystem
			{
				type	cartesian;
				origin	(0.0 0.0 0.0);
				coordinateRotation
				{
					type	axesRotation;
					e1	( 1.989052e-01 -4.371376e-01 -6.424698e-01 );
					e2	( -9.702712e-01 -2.419959e-01 -3.438328e-03 );
				}
			}
			rho	rho;
			mu	mu;
		}
		selectionMode	cellZone;
		cellZone	zone43;
	}
}
porosityInzone44
{
	active	true;
	type	explicitPorositySource;
	explicitPorositySourceCoeffs
	{
		type	DarcyForchheimer;
		DarcyForchheimerCoeffs
		{
			d	(0.0 0.0 0.0);
			f	(2.879714e+00 8.440541e-01 8.440541e-01);
			coordinateSystem
			{
				type	cartesian;
				origin	(0.0 0.0 0.0);
				coordinateRotation
				{
					type	axesRotation;
					e1	( 2.138036e-01 -9.454031e-01 -1.358573e-01 );
					e2	( -9.713639e-01 -2.375238e-01 -5.890035e-03 );
				}
			}
			rho	rho;
			mu	mu;
		}
		selectionMode	cellZone;
		cellZone	zone44;
	}
}
porosityInzone45
{
	active	true;
	type	explicitPorositySource;
	explicitPorositySourceCoeffs
	{
		type	DarcyForchheimer;
		DarcyForchheimerCoeffs
		{
			d	(0.0 0.0 0.0);
			f	(3.113540e+00 9.125892e-01 9.125892e-01);
			coordinateSystem
			{
				type	cartesian;
				origin	(0.0 0.0 0.0);
				coordinateRotation
				{
					type	axesRotation;
					e1	( 1.977694e-01 -9.786483e-01 5.234079e-02 );
					e2	( -9.737618e-01 -2.275668e-01 -1.126371e-03 );
				}
			}
			rho	rho;
			mu	mu;
		}
		selectionMode	cellZone;
		cellZone	zone45;
	}
}
porosityInzone46
{
	active	true;
	type	explicitPorositySource;
	explicitPorositySourceCoeffs
	{
		type	DarcyForchheimer;
		DarcyForchheimerCoeffs
		{
			d	(0.0 0.0 0.0);
			f	(2.969543e+00 8.703832e-01 8.703832e-01);
			coordinateSystem
			{
				type	cartesian;
				origin	(0.0 0.0 0.0);
				coordinateRotation
				{
					type	axesRotation;
					e1	( 2.570840e-01 -9.379696e-01 1.997442e-01 );
					e2	( -9.716786e-01 -2.362754e-01 3.828105e-03 );
				}
			}
			rho	rho;
			mu	mu;
		}
		selectionMode	cellZone;
		cellZone	zone46;
	}
}
porosityInzone47
{
	active	true;
	type	explicitPorositySource;
	explicitPorositySourceCoeffs
	{
		type	DarcyForchheimer;
		DarcyForchheimerCoeffs
		{
			d	(0.0 0.0 0.0);
			f	(2.334593e+00 6.842773e-01 6.842773e-01);
			coordinateSystem
			{
				type	cartesian;
				origin	(0.0 0.0 0.0);
				coordinateRotation
				{
					type	axesRotation;
					e1	( 2.137197e-01 -4.438374e-01 6.093775e-01 );
					e2	( -9.705631e-01 -2.408469e-01 2.678955e-04 );
				}
			}
			rho	rho;
			mu	mu;
		}
		selectionMode	cellZone;
		cellZone	zone47;
	}
}
porosityInzone48
{
	active	true;
	type	explicitPorositySource;
	explicitPorositySourceCoeffs
	{
		type	DarcyForchheimer;
		DarcyForchheimerCoeffs
		{
			d	(0.0 0.0 0.0);
			f	(1.487520e+00 4.359972e-01 4.359972e-01);
			coordinateSystem
			{
				type	cartesian;
				origin	(0.0 0.0 0.0);
				coordinateRotation
				{
					type	axesRotation;
					e1	( 5.575366e-02 -6.442895e-02 6.767837e-01 );
					e2	( -9.735060e-01 -2.286587e-01 1.095376e-03 );
				}
			}
			rho	rho;
			mu	mu;
		}
		selectionMode	cellZone;
		cellZone	zone48;
	}
}
porosityInzone49
{
	active	true;
	type	explicitPorositySource;
	explicitPorositySourceCoeffs
	{
		type	DarcyForchheimer;
		DarcyForchheimerCoeffs
		{
			d	(0.0 0.0 0.0);
			f	(1.777504e+00 5.209926e-01 5.209926e-01);
			coordinateSystem
			{
				type	cartesian;
				origin	(0.0 0.0 0.0);
				coordinateRotation
				{
					type	axesRotation;
					e1	( 1.072795e-01 -9.303115e-02 5.759592e-01 );
					e2	( -9.769094e-01 -2.136524e-01 -8.630362e-04 );
				}
			}
			rho	rho;
			mu	mu;
		}
		selectionMode	cellZone;
		cellZone	zone49;
	}
}
porosityInzone50
{
	active	true;
	type	explicitPorositySource;
	explicitPorositySourceCoeffs
	{
		type	DarcyForchheimer;
		DarcyForchheimerCoeffs
		{
			d	(0.0 0.0 0.0);
			f	(2.757011e+00 8.080895e-01 8.080895e-01);
			coordinateSystem
			{
				type	cartesian;
				origin	(0.0 0.0 0.0);
				coordinateRotation
				{
					type	axesRotation;
					e1	( 3.148695e-01 -4.037527e-01 4.504117e-01 );
					e2	( -9.796848e-01 -2.005404e-01 -1.104871e-03 );
				}
			}
			rho	rho;
			mu	mu;
		}
		selectionMode	cellZone;
		cellZone	zone50;
	}
}
porosityInzone51
{
	active	true;
	type	explicitPorositySource;
	explicitPorositySourceCoeffs
	{
		type	DarcyForchheimer;
		DarcyForchheimerCoeffs
		{
			d	(0.0 0.0 0.0);
			f	(2.567693e+00 7.525995e-01 7.525995e-01);
			coordinateSystem
			{
				type	cartesian;
				origin	(0.0 0.0 0.0);
				coordinateRotation
				{
					type	axesRotation;
					e1	( 4.293626e-01 -6.168822e-01 3.085069e-01 );
					e2	( -9.818914e-01 -1.894225e-01 2.883785e-03 );
				}
			}
			rho	rho;
			mu	mu;
		}
		selectionMode	cellZone;
		cellZone	zone51;
	}
}
porosityInzone52
{
	active	true;
	type	explicitPorositySource;
	explicitPorositySourceCoeffs
	{
		type	DarcyForchheimer;
		DarcyForchheimerCoeffs
		{
			d	(0.0 0.0 0.0);
			f	(2.524893e+00 7.400548e-01 7.400548e-01);
			coordinateSystem
			{
				type	cartesian;
				origin	(0.0 0.0 0.0);
				coordinateRotation
				{
					type	axesRotation;
					e1	( 4.515991e-01 -6.167255e-01 3.487819e-01 );
					e2	( -9.838143e-01 -1.790200e-01 7.825466e-03 );
				}
			}
			rho	rho;
			mu	mu;
		}
		selectionMode	cellZone;
		cellZone	zone52;
	}
}
porosityInzone53
{
	active	true;
	type	explicitPorositySource;
	explicitPorositySourceCoeffs
	{
		type	DarcyForchheimer;
		DarcyForchheimerCoeffs
		{
			d	(0.0 0.0 0.0);
			f	(2.640778e+00 7.740213e-01 7.740213e-01);
			coordinateSystem
			{
				type	cartesian;
				origin	(0.0 0.0 0.0);
				coordinateRotation
				{
					type	axesRotation;
					e1	( 3.793655e-01 -4.755303e-01 6.222890e-01 );
					e2	( -9.860766e-01 -1.657440e-01 1.348765e-02 );
				}
			}
			rho	rho;
			mu	mu;
		}
		selectionMode	cellZone;
		cellZone	zone53;
	}
}
porosityInzone54
{
	active	true;
	type	explicitPorositySource;
	explicitPorositySourceCoeffs
	{
		type	DarcyForchheimer;
		DarcyForchheimerCoeffs
		{
			d	(0.0 0.0 0.0);
			f	(2.492316e+00 7.305065e-01 7.305065e-01);
			coordinateSystem
			{
				type	cartesian;
				origin	(0.0 0.0 0.0);
				coordinateRotation
				{
					type	axesRotation;
					e1	( 2.184923e-01 -2.382281e-01 8.682724e-01 );
					e2	( -9.886399e-01 -1.492382e-01 1.786553e-02 );
				}
			}
			rho	rho;
			mu	mu;
		}
		selectionMode	cellZone;
		cellZone	zone54;
	}
}
porosityInzone55
{
	active	true;
	type	explicitPorositySource;
	explicitPorositySourceCoeffs
	{
		type	DarcyForchheimer;
		DarcyForchheimerCoeffs
		{
			d	(0.0 0.0 0.0);
			f	(2.034213e+00 5.962349e-01 5.962349e-01);
			coordinateSystem
			{
				type	cartesian;
				origin	(0.0 0.0 0.0);
				coordinateRotation
				{
					type	axesRotation;
					e1	( 5.305446e-02 -1.124771e-02 9.567029e-01 );
					e2	( -9.911934e-01 -1.310291e-01 1.916039e-02 );
				}
			}
			rho	rho;