FoamFile
{
    version    2.0;
    format    ascii;
    class    dictionary;
    location    "system";
    object    geometricCalcDict;
}
//*******************************************************//
zone0{e1 ( -3.270262e-01 1.756626e-02 9.448288e-01 ); e2 ( -9.999086e-01 -4.027120e-03 1.290600e-02 );}

zone1{e1 ( -1.086844e-01 -7.086567e-02 9.904111e-01 ); e2 ( -9.997230e-01 1.777703e-02 1.542428e-02 );}

zone2{e1 ( -5.248006e-02 -9.295471e-03 9.947753e-01 ); e2 ( -9.990825e-01 3.972935e-02 1.599195e-02 );}

zone3{e1 ( -6.922270e-02 -3.151065e-02 9.881534e-01 ); e2 ( -9.979790e-01 6.156087e-02 1.575674e-02 );}

zone4{e1 ( -9.847116e-02 -1.110996e-01 9.722382e-01 ); e2 ( -9.964341e-01 8.274537e-02 1.650027e-02 );}

zone5{e1 ( -4.293454e-02 -1.028662e-01 9.666794e-01 ); e2 ( -9.945490e-01 1.026260e-01 1.844652e-02 );}

zone6{e1 ( 9.778266e-02 7.732007e-02 9.441991e-01 ); e2 ( -9.924077e-01 1.215037e-01 1.907488e-02 );}

zone7{e1 ( 2.828647e-01 3.422115e-01 7.952000e-01 ); e2 ( -9.900860e-01 1.395095e-01 1.633598e-02 );}

zone8{e1 ( 4.253578e-01 5.565086e-01 5.255392e-01 ); e2 ( -9.878520e-01 1.549980e-01 1.113852e-02 );}

zone9{e1 ( 4.200728e-01 5.847069e-01 4.547972e-01 ); e2 ( -9.859179e-01 1.671255e-01 5.908229e-03 );}

zone10{e1 ( 3.070076e-01 3.760317e-01 5.583409e-01 ); e2 ( -9.837113e-01 1.797456e-01 1.880315e-03 );}

zone11{e1 ( 8.566079e-02 4.625319e-02 6.227579e-01 ); e2 ( -9.810238e-01 1.938733e-01 2.316796e-03 );}

zone12{e1 ( 1.554737e-02 5.321046e-02 7.157273e-01 ); e2 ( -9.778290e-01 2.093332e-01 5.486367e-03 );}

zone13{e1 ( 1.895920e-01 3.881376e-01 6.803469e-01 ); e2 ( -9.720597e-01 2.347188e-01 2.656565e-03 );}

zone14{e1 ( 2.276387e-01 9.490537e-01 1.150410e-01 ); e2 ( -9.731784e-01 2.299874e-01 5.431893e-03 );}

zone15{e1 ( 2.094103e-01 9.767759e-01 -4.420199e-02 ); e2 ( -9.754687e-01 2.201371e-01 6.435942e-04 );}

zone16{e1 ( 2.657031e-01 9.321469e-01 -2.104459e-01 ); e2 ( -9.734885e-01 2.286969e-01 -4.228906e-03 );}

zone17{e1 ( 2.553353e-01 5.595218e-01 -5.408644e-01 ); e2 ( -9.727355e-01 2.319174e-01 -2.113396e-04 );}

zone18{e1 ( 1.673506e-01 3.396993e-01 -5.907836e-01 ); e2 ( -9.753248e-01 2.207113e-01 -5.299100e-03 );}

zone19{e1 ( 1.535631e-01 3.004165e-01 -5.606350e-01 ); e2 ( -9.784059e-01 2.064466e-01 -1.008524e-02 );}

zone20{e1 ( 1.643359e-01 3.225293e-01 -6.506693e-01 ); e2 ( -9.810412e-01 1.932176e-01 -1.500563e-02 );}

zone21{e1 ( 1.928284e-01 3.971707e-01 -7.041602e-01 ); e2 ( -9.836804e-01 1.786860e-01 -2.107658e-02 );}

zone22{e1 ( 2.111351e-01 4.556803e-01 -7.231510e-01 ); e2 ( -9.859339e-01 1.644414e-01 -2.989008e-02 );}

zone23{e1 ( 1.369768e-01 3.654238e-01 -8.134579e-01 ); e2 ( -9.880283e-01 1.492320e-01 -3.911408e-02 );}

zone24{e1 ( -5.603034e-02 1.511762e-01 -9.220065e-01 ); e2 ( -9.901670e-01 1.318972e-01 -4.660889e-02 );}

zone25{e1 ( -1.752381e-01 -3.149104e-02 -9.468201e-01 ); e2 ( -9.921914e-01 1.136611e-01 -5.135625e-02 );}

zone26{e1 ( -2.128677e-01 -5.189193e-02 -9.514846e-01 ); e2 ( -9.940748e-01 9.473244e-02 -5.330231e-02 );}

zone27{e1 ( -1.177984e-01 1.076905e-01 -9.714604e-01 ); e2 ( -9.956133e-01 7.437486e-02 -5.676703e-02 );}

zone28{e1 ( 1.080997e-01 3.037811e-01 -9.379201e-01 ); e2 ( -9.966026e-01 5.348330e-02 -6.263179e-02 );}

zone29{e1 ( 2.745261e-01 3.595633e-01 -8.885338e-01 ); e2 ( -9.968876e-01 3.367335e-02 -7.128303e-02 );}

zone30{e1 ( 6.019420e-01 7.206607e-02 -7.947063e-01 ); e2 ( -9.968602e-01 1.313958e-02 -7.808429e-02 );}

zone31{e1 ( 3.232028e-01 -3.109642e-01 -8.937665e-01 ); e2 ( -9.972392e-01 -8.499777e-03 -7.376781e-02 );}

zone32{e1 ( 2.366154e-01 -3.751821e-01 -8.948269e-01 ); e2 ( -9.975000e-01 -2.826496e-02 -6.476707e-02 );}

zone33{e1 ( 6.164147e-02 -2.466074e-01 -9.619818e-01 ); e2 ( -9.971603e-01 -4.879145e-02 -5.736434e-02 );}

zone34{e1 ( -1.714980e-01 -5.003865e-02 -9.725257e-01 ); e2 ( -9.961510e-01 -7.016662e-02 -5.253498e-02 );}

zone35{e1 ( -2.674894e-01 1.129534e-01 -9.379020e-01 ); e2 ( -9.946181e-01 -9.076372e-02 -4.996870e-02 );}

zone36{e1 ( -2.366946e-01 1.049906e-01 -9.362556e-01 ); e2 ( -9.927499e-01 -1.097999e-01 -4.890365e-02 );}

zone37{e1 ( -1.142683e-01 -7.466127e-02 -9.384488e-01 ); e2 ( -9.906974e-01 -1.283263e-01 -4.528926e-02 );}

zone38{e1 ( 7.848629e-02 -2.902769e-01 -8.668115e-01 ); e2 ( -9.884927e-01 -1.461747e-01 -3.892588e-02 );}

zone39{e1 ( 1.742280e-01 -3.832404e-01 -7.796029e-01 ); e2 ( -9.862715e-01 -1.622316e-01 -3.081225e-02 );}

zone40{e1 ( 1.801388e-01 -3.447622e-01 -7.205268e-01 ); e2 ( -9.838573e-01 -1.773804e-01 -2.368676e-02 );}

zone41{e1 ( 1.462960e-01 -2.693407e-01 -6.501726e-01 ); e2 ( -9.812207e-01 -1.919480e-01 -1.902179e-02 );}

zone42{e1 ( 1.489589e-01 -2.995247e-01 -6.620919e-01 ); e2 ( -9.781703e-01 -2.072397e-01 -1.531336e-02 );}

zone43{e1 ( 1.989052e-01 -4.371376e-01 -6.424698e-01 ); e2 ( -9.702712e-01 -2.419959e-01 -3.438328e-03 );}

zone44{e1 ( 2.138036e-01 -9.454031e-01 -1.358573e-01 ); e2 ( -9.713639e-01 -2.375238e-01 -5.890035e-03 );}

zone45{e1 ( 1.977694e-01 -9.786483e-01 5.234079e-02 ); e2 ( -9.737618e-01 -2.275668e-01 -1.126371e-03 );}

zone46{e1 ( 2.570840e-01 -9.379696e-01 1.997442e-01 ); e2 ( -9.716786e-01 -2.362754e-01 3.828105e-03 );}

zone47{e1 ( 2.137197e-01 -4.438374e-01 6.093775e-01 ); e2 ( -9.705631e-01 -2.408469e-01 2.678955e-04 );}

zone48{e1 ( 5.575366e-02 -6.442895e-02 6.767837e-01 ); e2 ( -9.735060e-01 -2.286587e-01 1.095376e-03 );}

zone49{e1 ( 1.072795e-01 -9.303115e-02 5.759592e-01 ); e2 ( -9.769094e-01 -2.136524e-01 -8.630362e-04 );}

zone50{e1 ( 3.148695e-01 -4.037527e-01 4.504117e-01 ); e2 ( -9.796848e-01 -2.005404e-01 -1.104871e-03 );}

zone51{e1 ( 4.293626e-01 -6.168822e-01 3.085069e-01 ); e2 ( -9.818914e-01 -1.894225e-01 2.883785e-03 );}

zone52{e1 ( 4.515991e-01 -6.167255e-01 3.487819e-01 ); e2 ( -9.838143e-01 -1.790200e-01 7.825466e-03 );}

zone53{e1 ( 3.793655e-01 -4.755303e-01 6.222890e-01 ); e2 ( -9.860766e-01 -1.657440e-01 1.348765e-02 );}

zone54{e1 ( 2.184923e-01 -2.382281e-01 8.682724e-01 ); e2 ( -9.886399e-01 -1.492382e-01 1.786553e-02 );}

zone55{e1 ( 5.305446e-02 -1.124771e-02 9.567029e-01 ); e2 ( -9.911934e-01 -1.310291e-01 1.916039e-02 );}

zone56{e1 ( -8.118091e-02 1.080676e-01 9.652455e-01 ); e2 ( -9.935753e-01 -1.116876e-01 1.827713e-02 );}

zone57{e1 ( -1.369029e-01 1.087482e-01 9.691951e-01 ); e2 ( -9.956964e-01 -9.114320e-02 1.677807e-02 );}

zone58{e1 ( -1.139384e-01 6.991148e-02 9.830842e-01 ); e2 ( -9.974509e-01 -6.960481e-02 1.571269e-02 );}

zone59{e1 ( -2.655120e-01 1.987150e-03 9.605769e-01 ); e2 ( -9.987555e-01 -4.768821e-02 1.460411e-02 );}

zone60{e1 ( -3.270262e-01 1.756626e-02 9.448288e-01 ); e2 ( 9.420875e-01 8.434330e-02 3.245880e-01 );}

zone61{e1 ( -1.086844e-01 -7.086567e-02 9.904111e-01 ); e2 ( 9.826161e-01 1.431897e-01 1.181626e-01 );}

zone62{e1 ( -5.248006e-02 -9.295471e-03 9.947753e-01 ); e2 ( 9.826270e-01 1.777064e-01 5.352160e-02 );}

zone63{e1 ( -6.922270e-02 -3.151065e-02 9.881534e-01 ); e2 ( 9.746695e-01 2.106945e-01 7.501464e-02 );}

zone64{e1 ( -9.847116e-02 -1.110996e-01 9.722382e-01 ); e2 ( 9.607812e-01 2.472354e-01 1.255949e-01 );}

zone65{e1 ( -4.293454e-02 -1.028662e-01 9.666794e-01 ); e2 ( 9.549796e-01 2.875327e-01 7.306751e-02 );}

zone66{e1 ( 9.778266e-02 7.732007e-02 9.441991e-01 ); e2 ( 9.523146e-01 2.798960e-01 -1.214709e-01 );}

zone67{e1 ( 2.828647e-01 3.422115e-01 7.952000e-01 ); e2 ( 9.095320e-01 1.495609e-01 -3.877925e-01 );}

zone68{e1 ( 4.253578e-01 5.565086e-01 5.255392e-01 ); e2 ( 7.890487e-01 -2.327988e-02 -6.138894e-01 );}

zone69{e1 ( 4.200728e-01 5.847069e-01 4.547972e-01 ); e2 ( 7.669153e-01 -5.352279e-02 -6.395125e-01 );}

zone70{e1 ( 3.070076e-01 3.760317e-01 5.583409e-01 ); e2 ( 8.908204e-01 -5.827052e-02 -4.506035e-01 );}

zone71{e1 ( 8.566079e-02 4.625319e-02 6.227579e-01 ); e2 ( 9.876248e-01 -8.880514e-02 -1.292703e-01 );}

zone72{e1 ( 1.554737e-02 5.321046e-02 7.157273e-01 ); e2 ( 9.900430e-01 -1.403287e-01 -1.107969e-02 );}

zone73{e1 ( 1.895920e-01 3.881376e-01 6.803469e-01 ); e2 ( 9.579691e-01 -2.616099e-01 -1.177089e-01 );}

zone74{e1 ( 2.276387e-01 9.490537e-01 1.150410e-01 ); e2 ( 9.700861e-01 -2.203289e-01 -1.019227e-01 );}

zone75{e1 ( 2.094103e-01 9.767759e-01 -4.420199e-02 ); e2 ( 9.775982e-01 -2.101331e-01 -1.207532e-02 );}

zone76{e1 ( 2.657031e-01 9.321469e-01 -2.104459e-01 ); e2 ( 9.631210e-01 -2.554535e-01 8.450698e-02 );}

zone77{e1 ( 2.553353e-01 5.595218e-01 -5.408644e-01 ); e2 ( 9.377289e-01 -3.332846e-01 9.790802e-02 );}

zone78{e1 ( 1.673506e-01 3.396993e-01 -5.907836e-01 ); e2 ( 9.688457e-01 -1.782411e-01 1.719538e-01 );}

zone79{e1 ( 1.535631e-01 3.004165e-01 -5.606350e-01 ); e2 ( 9.719014e-01 -1.272974e-01 1.979973e-01 );}

zone80{e1 ( 1.643359e-01 3.225293e-01 -6.506693e-01 ); e2 ( 9.735188e-01 -4.313650e-02 2.245001e-01 );}

zone81{e1 ( 1.928284e-01 3.971707e-01 -7.041602e-01 ); e2 ( 9.620393e-01 1.592927e-02 2.724456e-01 );}

zone82{e1 ( 2.111351e-01 4.556803e-01 -7.231510e-01 ); e2 ( 9.502970e-01 4.791233e-02 3.076363e-01 );}

zone83{e1 ( 1.369768e-01 3.654238e-01 -8.134579e-01 ); e2 ( 9.718771e-01 1.050161e-01 2.107762e-01 );}

zone84{e1 ( -5.603034e-02 1.511762e-01 -9.220065e-01 ); e2 ( 9.741729e-01 2.246882e-01 -2.241236e-02 );}

zone85{e1 ( -1.752381e-01 -3.149104e-02 -9.468201e-01 ); e2 ( 9.423168e-01 2.797817e-01 -1.837422e-01 );}

zone86{e1 ( -2.128677e-01 -5.189193e-02 -9.514846e-01 ); e2 ( 9.401469e-01 2.565219e-01 -2.243220e-01 );}

zone87{e1 ( -1.177984e-01 1.076905e-01 -9.714604e-01 ); e2 ( 9.737506e-01 2.067902e-01 -9.511867e-02 );}

zone88{e1 ( 1.080997e-01 3.037811e-01 -9.379201e-01 ); e2 ( 9.777412e-01 1.385296e-01 1.575806e-01 );}

zone89{e1 ( 2.745261e-01 3.595633e-01 -8.885338e-01 ); e2 ( 9.404384e-01 9.125671e-02 3.274872e-01 );}

zone90{e1 ( 6.019420e-01 7.206607e-02 -7.947063e-01 ); e2 ( 7.974741e-01 -8.856805e-03 6.032881e-01 );}

zone91{e1 ( 3.232028e-01 -3.109642e-01 -8.937665e-01 ); e2 ( 9.271122e-01 -8.539074e-02 3.649266e-01 );}

zone92{e1 ( 2.366154e-01 -3.751821e-01 -8.948269e-01 ); e2 ( 9.474459e-01 -1.147057e-01 2.986450e-01 );}

zone93{e1 ( 6.164147e-02 -2.466074e-01 -9.619818e-01 ); e2 ( 9.791807e-01 -1.724382e-01 1.070988e-01 );}

zone94{e1 ( -1.714980e-01 -5.003865e-02 -9.725257e-01 ); e2 ( 9.606642e-01 -2.287172e-01 -1.575205e-01 );}

zone95{e1 ( -2.674894e-01 1.129534e-01 -9.379020e-01 ); e2 ( 9.180904e-01 -2.660560e-01 -2.938097e-01 );}

zone96{e1 ( -2.366946e-01 1.049906e-01 -9.362556e-01 ); e2 ( 9.201693e-01 -2.882774e-01 -2.649239e-01 );}

zone97{e1 ( -1.142683e-01 -7.466127e-02 -9.384488e-01 ); e2 ( 9.633740e-01 -2.498354e-01 -9.743147e-02 );}

zone98{e1 ( 7.848629e-02 -2.902769e-01 -8.668115e-01 ); e2 ( 9.780663e-01 -1.540960e-01 1.401451e-01 );}

zone99{e1 ( 1.742280e-01 -3.832404e-01 -7.796029e-01 ); e2 ( 9.628848e-01 -8.403265e-02 2.564981e-01 );}

zone100{e1 ( 1.801388e-01 -3.447622e-01 -7.205268e-01 ); e2 ( 9.673611e-01 -2.210314e-02 2.524360e-01 );}

zone101{e1 ( 1.462960e-01 -2.693407e-01 -6.501726e-01 ); e2 ( 9.789615e-01 6.423889e-02 1.936692e-01 );}

zone102{e1 ( 1.489589e-01 -2.995247e-01 -6.620919e-01 ); e2 ( 9.749474e-01 1.713592e-01 1.418226e-01 );}

zone103{e1 ( 1.989052e-01 -4.371376e-01 -6.424698e-01 ); e2 ( 9.607439e-01 2.445264e-01 1.310648e-01 );}

zone104{e1 ( 2.138036e-01 -9.454031e-01 -1.358573e-01 ); e2 ( 9.728230e-01 2.043599e-01 1.088691e-01 );}

zone105{e1 ( 1.977694e-01 -9.786483e-01 5.234079e-02 ); e2 ( 9.799053e-01 1.988555e-01 1.555982e-02 );}

zone106{e1 ( 2.570840e-01 -9.379696e-01 1.997442e-01 ); e2 ( 9.654262e-01 2.466373e-01 -8.439420e-02 );}

zone107{e1 ( 2.137197e-01 -4.438374e-01 6.093775e-01 ); e2 ( 9.422989e-01 3.203690e-01 -9.714195e-02 );}

zone108{e1 ( 5.575366e-02 -6.442895e-02 6.767837e-01 ); e2 ( 9.882918e-01 1.363660e-01 -6.843744e-02 );}

zone109{e1 ( 1.072795e-01 -9.303115e-02 5.759592e-01 ); e2 ( 9.783763e-01 1.294176e-01 -1.613408e-01 );}

zone110{e1 ( 3.148695e-01 -4.037527e-01 4.504117e-01 ); e2 ( 8.677629e-01 1.472263e-01 -4.746704e-01 );}

zone111{e1 ( 4.293626e-01 -6.168822e-01 3.085069e-01 ); e2 ( 7.221339e-01 1.668720e-01 -6.713244e-01 );}

zone112{e1 ( 4.515991e-01 -6.167255e-01 3.487819e-01 ); e2 ( 7.247478e-01 1.503807e-01 -6.724034e-01 );}

zone113{e1 ( 3.793655e-01 -4.755303e-01 6.222890e-01 ); e2 ( 8.497271e-01 -1.199635e-02 -5.270863e-01 );}

zone114{e1 ( 2.184923e-01 -2.382281e-01 8.682724e-01 ); e2 ( 9.338981e-01 -2.067903e-01 -2.916711e-01 );}

zone115{e1 ( 5.305446e-02 -1.124771e-02 9.567029e-01 ); e2 ( 9.614343e-01 -2.691875e-01 -5.641065e-02 );}

zone116{e1 ( -8.118091e-02 1.080676e-01 9.652455e-01 ); e2 ( 9.656011e-01 -2.366463e-01 1.077637e-01 );}

zone117{e1 ( -1.369029e-01 1.087482e-01 9.691951e-01 ); e2 ( 9.708298e-01 -1.808187e-01 1.574617e-01 );}

zone118{e1 ( -1.139384e-01 6.991148e-02 9.830842e-01 ); e2 ( 9.834571e-01 -1.325644e-01 1.234459e-01 );}

zone119{e1 ( -2.655120e-01 1.987150e-03 9.605769e-01 ); e2 ( 9.613675e-01 -7.109418e-02 2.659287e-01 );}

zone120{e1 ( -1.066022e-01 3.898157e-03 9.942578e-01 ); e2 ( 9.916668e-01 7.303503e-02 1.061262e-01 );}

zone121{e1 ( -2.554191e-02 2.132445e-02 9.976024e-01 ); e2 ( 9.922952e-01 1.217669e-01 2.286987e-02 );}

zone122{e1 ( 4.023645e-03 -1.388368e-02 9.937306e-01 ); e2 ( 9.872078e-01 1.594297e-01 -1.711764e-03 );}

zone123{e1 ( 6.363860e-02 -1.575027e-02 9.847114e-01 ); e2 ( 9.798006e-01 1.907022e-01 -6.019527e-02 );}

zone124{e1 ( 2.325092e-01 1.343394e-01 9.355246e-01 ); e2 ( 9.476225e-01 1.830872e-01 -2.617071e-01 );}

zone125{e1 ( 4.617639e-01 4.137429e-01 7.201494e-01 ); e2 ( 8.242041e-01 6.043173e-02 -5.630592e-01 );}

zone126{e1 ( 5.900784e-01 6.433510e-01 3.229854e-01 ); e2 ( 6.011919e-01 -1.580516e-01 -7.833185e-01 );}

zone127{e1 ( 5.611951e-01 7.168961e-01 1.521293e-01 ); e2 ( 5.188853e-01 -2.315476e-01 -8.228874e-01 );}

zone128{e1 ( 5.178369e-01 6.016594e-01 3.577658e-01 ); e2 ( 6.781961e-01 -1.568368e-01 -7.179500e-01 );}

zone129{e1 ( 2.789488e-01 2.304708e-01 6.834603e-01 ); e2 ( 9.302986e-01 -4.766137e-02 -3.636934e-01 );}

zone130{e1 ( 2.460120e-03 -1.235194e-01 7.438484e-01 ); e2 ( 9.996294e-01 -2.611908e-02 -7.672127e-03 );}

zone131{e1 ( -5.143444e-02 -1.516135e-01 7.378209e-01 ); e2 ( 9.959298e-01 -7.163754e-02 5.469881e-02 );}

zone132{e1 ( 4.652532e-02 1.537564e-01 7.793125e-01 ); e2 ( 9.844432e-01 -1.739942e-01 -2.444389e-02 );}

zone133{e1 ( 1.907574e-01 4.945938e-01 7.001372e-01 ); e2 ( 9.721750e-01 -1.982092e-01 -1.248556e-01 );}

zone134{e1 ( 2.258875e-01 9.638495e-01 1.105479e-01 ); e2 ( 9.692901e-01 -2.130817e-01 -1.227716e-01 );}

zone135{e1 ( 1.923912e-01 9.772086e-01 -8.715034e-02 ); e2 ( 9.807563e-01 -1.945490e-01 -1.636269e-02 );}

zone136{e1 ( 2.680275e-01 8.943832e-01 -3.442130e-01 ); e2 ( 9.630430e-01 -2.509123e-01 9.793434e-02 );}

zone137{e1 ( 2.381131e-01 5.990403e-01 -5.794755e-01 ); e2 ( 9.547375e-01 -2.785369e-01 1.043717e-01 );}

zone138{e1 ( 1.677811e-01 3.585134e-01 -6.119243e-01 ); e2 ( 9.642989e-01 -2.313549e-01 1.288511e-01 );}

zone139{e1 ( 1.866371e-01 3.498064e-01 -6.337074e-01 ); e2 ( 9.679006e-01 -1.466923e-01 2.040830e-01 );}

zone140{e1 ( 1.950269e-01 3.505151e-01 -6.354013e-01 ); e2 ( 9.653621e-01 -1.010331e-01 2.405582e-01 );}

zone141{e1 ( 1.859321e-01 3.140035e-01 -7.120159e-01 ); e2 ( 9.710184e-01 -4.112098e-02 2.354407e-01 );}

zone142{e1 ( 2.684978e-01 3.860550e-01 -7.058110e-01 ); e2 ( 9.416955e-01 -4.553905e-02 3.333703e-01 );}

zone143{e1 ( 4.148867e-01 5.746616e-01 -5.527020e-01 ); e2 ( 8.425560e-01 -9.917115e-02 5.294001e-01 );}

zone144{e1 ( 4.647954e-01 6.255476e-01 -5.017031e-01 ); e2 ( 7.953876e-01 -1.134465e-01 5.953894e-01 );}

zone145{e1 ( 4.067791e-01 4.941302e-01 -6.761717e-01 ); e2 ( 8.722650e-01 -5.259424e-02 4.861972e-01 );}

zone146{e1 ( 1.270173e-01 2.378550e-01 -9.183500e-01 ); e2 ( 9.780106e-01 1.243960e-01 1.673945e-01 );}

zone147{e1 ( -3.026237e-02 4.533950e-02 -9.772474e-01 ); e2 ( 9.813327e-01 1.911036e-01 -2.157559e-02 );}

zone148{e1 ( -5.479124e-02 7.626430e-03 -9.878982e-01 ); e2 ( 9.844826e-01 1.671794e-01 -5.333892e-02 );}

zone149{e1 ( 9.861617e-02 5.506748e-02 -9.880783e-01 ); e2 ( 9.918108e-01 7.524749e-02 1.031948e-01 );}

zone150{e1 ( 3.017058e-01 -3.731478e-03 -9.521471e-01 ); e2 ( 9.531516e-01 -1.556654e-02 3.020921e-01 );}

zone151{e1 ( 1.589368e-01 -1.036533e-01 -9.814628e-01 ); e2 ( 9.835283e-01 -6.992151e-02 1.666825e-01 );}

zone152{e1 ( -9.364742e-02 -5.069678e-02 -9.914807e-01 ); e2 ( 9.836556e-01 -1.588586e-01 -8.476784e-02 );}

zone153{e1 ( -2.107888e-01 6.746549e-02 -9.684177e-01 ); e2 ( 9.511295e-01 -2.146375e-01 -2.219985e-01 );}

zone154{e1 ( -1.798513e-01 5.649947e-02 -9.667831e-01 ); e2 ( 9.541907e-01 -2.302850e-01 -1.910210e-01 );}

zone155{e1 ( -2.101086e-02 -1.258307e-01 -9.581998e-01 ); e2 ( 9.834045e-01 -1.814138e-01 2.169520e-03 );}

zone156{e1 ( 2.808989e-01 -3.990753e-01 -8.077746e-01 ); e2 ( 9.358404e-01 -4.816589e-02 3.491171e-01 );}

zone157{e1 ( 3.871605e-01 -5.507038e-01 -6.473139e-01 ); e2 ( 8.666063e-01 2.329382e-02 4.984484e-01 );}

zone158{e1 ( 3.597028e-01 -5.140808e-01 -6.529804e-01 ); e2 ( 8.864599e-01 3.399745e-02 4.615551e-01 );}

zone159{e1 ( 2.586417e-01 -3.721983e-01 -7.278123e-01 ); e2 ( 9.455546e-01 2.215882e-02 3.247082e-01 );}

zone160{e1 ( 1.808828e-01 -2.901607e-01 -7.328949e-01 ); e2 ( 9.736164e-01 3.910494e-02 2.248155e-01 );}

zone161{e1 ( 1.587504e-01 -2.831729e-01 -7.168884e-01 ); e2 ( 9.792414e-01 9.296435e-02 1.801217e-01 );}

zone162{e1 ( 1.737417e-01 -3.343971e-01 -7.203998e-01 ); e2 ( 9.704625e-01 1.933353e-01 1.443052e-01 );}

zone163{e1 ( 1.720940e-01 -4.722899e-01 -7.110664e-01 ); e2 ( 9.787270e-01 1.559950e-01 1.332628e-01 );}

zone164{e1 ( 2.094542e-01 -9.713468e-01 -9.298311e-02 ); e2 ( 9.718018e-01 1.971728e-01 1.293222e-01 );}

zone165{e1 ( 1.864103e-01 -9.763995e-01 1.012178e-01 ); e2 ( 9.816717e-01 1.895087e-01 2.017990e-02 );}

zone166{e1 ( 2.614746e-01 -8.947489e-01 3.422045e-01 ); e2 ( 9.647085e-01 2.455347e-01 -9.513283e-02 );}

zone167{e1 ( 2.251516e-01 -5.587966e-01 6.008537e-01 ); e2 ( 9.556699e-01 2.766357e-01 -1.008353e-01 );}

zone168{e1 ( 5.605264e-02 -1.258713e-01 6.906478e-01 ); e2 ( 9.785346e-01 2.016159e-01 -4.267393e-02 );}

zone169{e1 ( -1.539430e-02 8.869492e-02 7.274167e-01 ); e2 ( 9.954267e-01 9.505816e-02 9.470080e-03 );}

zone170{e1 ( 4.019839e-02 6.314568e-02 7.137717e-01 ); e2 ( 9.961886e-01 6.176943e-02 -6.158510e-02 );}

zone171{e1 ( 3.068656e-01 -2.800172e-01 5.984143e-01 ); e2 ( 9.053548e-01 1.248715e-01 -4.058814e-01 );}

zone172{e1 ( 5.295285e-01 -6.093087e-01 2.222893e-01 ); e2 ( 6.249775e-01 2.768979e-01 -7.298840e-01 );}

zone173{e1 ( 5.524940e-01 -7.143189e-01 -5.825611e-02 ); e2 ( 4.080445e-01 3.831766e-01 -8.286588e-01 );}

zone174{e1 ( 5.988590e-01 -6.956857e-01 6.151211e-03 ); e2 ( 4.205251e-01 3.545452e-01 -8.351385e-01 );}

zone175{e1 ( 6.180009e-01 -5.804540e-01 3.723643e-01 ); e2 ( 6.236448e-01 1.750951e-01 -7.618457e-01 );}

zone176{e1 ( 4.649041e-01 -3.465758e-01 7.570734e-01 ); e2 ( 8.436190e-01 -3.854778e-02 -5.355568e-01 );}

zone177{e1 ( 2.388018e-01 -1.076462e-01 9.391271e-01 ); e2 ( 9.591622e-01 -1.175845e-01 -2.572582e-01 );}

zone178{e1 ( 5.801429e-02 8.455616e-03 9.856944e-01 ); e2 ( 9.932964e-01 -1.002773e-01 -5.750479e-02 );}

zone179{e1 ( -4.395596e-02 3.213304e-02 9.932402e-01 ); e2 ( 9.977323e-01 -4.928684e-02 4.583824e-02 );}

zone180{e1 ( 4.237943e-01 4.423897e-02 9.046309e-01 ); e2 ( 9.032425e-01 5.430839e-02 -4.256801e-01 );}

zone181{e1 ( 4.158787e-01 8.912719e-02 9.021841e-01 ); e2 ( 9.024210e-01 7.856868e-02 -4.236312e-01 );}

zone182{e1 ( 4.971496e-01 1.885568e-01 8.365172e-01 ); e2 ( 8.496057e-01 7.597439e-02 -5.219176e-01 );}

zone183{e1 ( 6.468348e-01 3.820948e-01 6.291787e-01 ); e2 ( 7.006318e-01 -1.097087e-02 -7.134386e-01 );}

zone184{e1 ( 7.330625e-01 5.797462e-01 2.506116e-01 ); e2 ( 4.534334e-01 -1.974848e-01 -8.691363e-01 );}

zone185{e1 ( 6.708398e-01 6.891780e-01 -1.677826e-03 ); e2 ( 3.254025e-01 -3.188744e-01 -8.901867e-01 );}

zone186{e1 ( 6.380625e-01 6.763898e-01 1.182765e-01 ); e2 ( 4.554801e-01 -2.820700e-01 -8.443781e-01 );}

zone187{e1 ( 4.928983e-01 4.425884e-01 5.768352e-01 ); e2 ( 7.917241e-01 -9.551588e-02 -6.033653e-01 );}

zone188{e1 ( 1.189167e-01 -1.391586e-02 8.342306e-01 ); e2 ( 9.897175e-01 2.561393e-02 -1.407239e-01 );}

zone189{e1 ( -1.261166e-01 -3.049022e-01 7.631017e-01 ); e2 ( 9.879412e-01 -2.694992e-02 1.524658e-01 );}

zone190{e1 ( -1.366994e-01 -2.639565e-01 7.501321e-01 ); e2 ( 9.852284e-01 -8.014441e-02 1.513336e-01 );}

zone191{e1 ( -3.652696e-02 -6.307443e-02 7.882731e-01 ); e2 ( 9.911993e-01 -1.274646e-01 3.573243e-02 );}

zone192{e1 ( 9.243834e-02 2.567159e-01 7.947917e-01 ); e2 ( 9.816762e-01 -1.823655e-01 -5.526853e-02 );}

zone193{e1 ( 1.701621e-01 5.138378e-01 6.972623e-01 ); e2 ( 9.744118e-01 -2.083930e-01 -8.422605e-02 );}

zone194{e1 ( 1.792779e-01 9.590208e-01 1.602264e-01 ); e2 ( 9.826633e-01 -1.722334e-01 -6.861852e-02 );}

zone195{e1 ( 1.719089e-01 9.718695e-01 -1.609214e-01 ); e2 ( 9.839737e-01 -1.772579e-01 -1.937404e-02 );}

zone196{e1 ( 2.101890e-01 8.554818e-01 -4.495358e-01 ); e2 ( 9.752393e-01 -2.168794e-01 4.326284e-02 );}

zone197{e1 ( 1.928116e-01 5.752797e-01 -6.313467e-01 ); e2 ( 9.679588e-01 -2.386309e-01 7.817325e-02 );}

zone198{e1 ( 1.427554e-01 3.322846e-01 -6.677136e-01 ); e2 ( 9.688716e-01 -2.294475e-01 9.296044e-02 );}

zone199{e1 ( 1.740515e-01 3.223520e-01 -6.797093e-01 ); e2 ( 9.690881e-01 -1.890838e-01 1.584787e-01 );}

zone200{e1 ( 2.219201e-01 3.860015e-01 -6.510413e-01 ); e2 ( 9.595944e-01 -1.473853e-01 2.397000e-01 );}

zone201{e1 ( 2.199141e-01 3.792166e-01 -6.755691e-01 ); e2 ( 9.612831e-01 -9.990787e-02 2.568135e-01 );}

zone202{e1 ( 1.479476e-01 2.441671e-01 -7.944327e-01 ); e2 ( 9.837664e-01 -1.397582e-02 1.789090e-01 );}

zone203{e1 ( 1.903566e-01 2.414632e-01 -8.229461e-01 ); e2 ( 9.750681e-01 -1.411412e-02 2.214567e-01 );}

zone204{e1 ( 4.582333e-01 4.665880e-01 -6.200690e-01 ); e2 ( 8.454977e-01 -1.491380e-01 5.127295e-01 );}

zone205{e1 ( 6.223357e-01 6.367946e-01 -3.235596e-01 ); e2 ( 6.309495e-01 -2.421520e-01 7.370653e-01 );}

zone206{e1 ( 6.653838e-01 6.377492e-01 -2.807524e-01 ); e2 ( 5.655084e-01 -2.430083e-01 7.881289e-01 );}

zone207{e1 ( 6.627151e-01 4.958992e-01 -4.998885e-01 ); e2 ( 6.709430e-01 -1.685447e-01 7.220998e-01 );}

zone208{e1 ( 5.100584e-01 3.096539e-01 -7.754424e-01 ); e2 ( 8.437530e-01 -5.146796e-02 5.342582e-01 );}

zone209{e1 ( 3.728865e-01 1.367014e-01 -9.094111e-01 ); e2 ( 9.253058e-01 -2.703289e-04 3.792217e-01 );}

zone210{e1 ( 3.030931e-01 1.473520e-02 -9.517472e-01 ); e2 ( 9.526448e-01 -2.783510e-02 3.028086e-01 );}

zone211{e1 ( 2.289232e-01 -6.123692e-02 -9.712303e-01 ); e2 ( 9.686255e-01 -8.499798e-02 2.335378e-01 );}

zone212{e1 ( 2.067203e-01 -1.197300e-01 -9.664961e-01 ); e2 ( 9.694421e-01 -1.074640e-01 2.205303e-01 );}

zone213{e1 ( 3.487138e-01 -2.566922e-01 -8.850059e-01 ); e2 ( 9.233273e-01 -5.606961e-02 3.798985e-01 );}

zone214{e1 ( 5.563561e-01 -4.493528e-01 -6.620372e-01 ); e2 ( 7.828311e-01 5.596697e-02 6.197121e-01 );}

zone215{e1 ( 6.050487e-01 -5.969721e-01 -4.657817e-01 ); e2 ( 6.825881e-01 1.307215e-01 7.190170e-01 );}

zone216{e1 ( 5.785132e-01 -6.016964e-01 -4.622047e-01 ); e2 ( 7.103029e-01 1.555898e-01 6.864850e-01 );}

zone217{e1 ( 4.395105e-01 -4.533779e-01 -6.664375e-01 ); e2 ( 8.601835e-01 9.840876e-02 5.004000e-01 );}

zone218{e1 ( 2.417633e-01 -2.911291e-01 -8.059358e-01 ); e2 ( 9.596189e-01 2.030055e-02 2.805698e-01 );}

zone219{e1 ( 1.752526e-01 -2.547932e-01 -8.004422e-01 ); e2 ( 9.782881e-01 2.763071e-02 2.053993e-01 );}

zone220{e1 ( 1.688935e-01 -2.793750e-01 -7.677488e-01 ); e2 ( 9.792472e-01 7.853460e-02 1.868348e-01 );}

zone221{e1 ( 1.621364e-01 -2.980486e-01 -7.475081e-01 ); e2 ( 9.777029e-01 1.405495e-01 1.560219e-01 );}

zone222{e1 ( 1.727729e-01 -3.333359e-01 -7.633577e-01 ); e2 ( 9.728498e-01 1.846166e-01 1.395710e-01 );}

zone223{e1 ( 1.312039e-01 -4.406447e-01 -7.354682e-01 ); e2 ( 9.825697e-01 1.710423e-01 7.280945e-02 );}

zone224{e1 ( 1.636733e-01 -9.732183e-01 -9.618641e-02 ); e2 ( 9.847976e-01 1.586228e-01 7.079867e-02 );}

zone225{e1 ( 1.718178e-01 -9.636903e-01 2.027519e-01 ); e2 ( 9.834759e-01 1.797978e-01 2.116265e-02 );}

zone226{e1 ( 2.069903e-01 -8.537517e-01 4.473000e-01 ); e2 ( 9.756142e-01 2.159455e-01 -3.929976e-02 );}

zone227{e1 ( 1.910672e-01 -5.835648e-01 6.121928e-01 ); e2 ( 9.677071e-01 2.416819e-01 -7.164377e-02 );}

zone228{e1 ( 8.495317e-02 -2.380373e-01 7.009699e-01 ); e2 ( 9.750366e-01 2.175844e-01 -4.428014e-02 );}

zone229{e1 ( -2.907486e-02 4.053983e-02 7.625405e-01 ); e2 ( 9.876230e-01 1.540536e-01 2.946600e-02 );}

zone230{e1 ( -1.105513e-01 2.282297e-01 7.412011e-01 ); e2 ( 9.882044e-01 9.887939e-02 1.169399e-01 );}

zone231{e1 ( -8.171373e-02 2.459011e-01 7.619524e-01 ); e2 ( 9.947638e-01 4.252043e-02 9.293502e-02 );}

zone232{e1 ( 1.631018e-01 -3.977452e-02 7.999674e-01 ); e2 ( 9.798764e-01 1.314665e-02 -1.991719e-01 );}

zone233{e1 ( 4.981398e-01 -4.487808e-01 5.267350e-01 ); e2 ( 7.807574e-01 1.568611e-01 -6.048243e-01 );}

zone234{e1 ( 6.484970e-01 -6.422222e-01 1.227598e-02 ); e2 ( 4.062647e-01 3.945312e-01 -8.241930e-01 );}

zone235{e1 ( 6.390433e-01 -6.586373e-01 -2.477925e-01 ); e2 ( 1.670834e-01 4.850416e-01 -8.583809e-01 );}

zone236{e1 ( 7.188592e-01 -6.177355e-01 -1.562783e-01 ); e2 ( 1.718788e-01 4.247755e-01 -8.888326e-01 );}

zone237{e1 ( 8.012426e-01 -5.059921e-01 1.944309e-01 ); e2 ( 3.805428e-01 2.615144e-01 -8.870160e-01 );}

zone238{e1 ( 7.256646e-01 -3.204009e-01 5.768042e-01 ); e2 ( 6.446702e-01 9.383244e-02 -7.586803e-01 );}

zone239{e1 ( 5.803137e-01 -1.364756e-01 7.928467e-01 ); e2 ( 8.090722e-01 2.927239e-02 -5.869798e-01 );}

zone240{e1 ( 9.330987e-01 5.522539e-02 3.553276e-01 ); e2 ( 3.550699e-01 1.677088e-02 -9.346893e-01 );}

zone241{e1 ( 9.211720e-01 2.335831e-01 3.032758e-01 ); e2 ( 3.263564e-01 -6.189757e-02 -9.432180e-01 );}

zone242{e1 ( 8.948631e-01 4.106398e-01 1.197223e-01 ); e2 ( 2.099042e-01 -1.768601e-01 -9.615928e-01 );}

zone243{e1 ( 8.115038e-01 5.588809e-01 -3.717080e-02 ); e2 ( 1.496580e-01 -2.803190e-01 -9.481686e-01 );}

zone244{e1 ( 7.547113e-01 6.155722e-01 2.456910e-02 ); e2 ( 2.728993e-01 -2.981362e-01 -9.146807e-01 );}

zone245{e1 ( 6.665947e-01 5.242490e-01 4.109275e-01 ); e2 ( 6.106012e-01 -1.703597e-01 -7.733975e-01 );}

zone246{e1 ( 3.184818e-01 1.808393e-01 8.347008e-01 ); e2 ( 9.323701e-01 2.276309e-02 -3.607878e-01 );}

zone247{e1 ( -8.361819e-02 -2.526262e-01 8.520764e-01 ); e2 ( 9.946462e-01 1.561383e-02 1.021522e-01 );}

zone248{e1 ( -2.594543e-01 -4.255526e-01 7.208413e-01 ); e2 ( 9.517731e-01 -7.726934e-02 2.969130e-01 );}

zone249{e1 ( -2.087415e-01 -3.280259e-01 7.519516e-01 ); e2 ( 9.691070e-01 -1.035260e-01 2.238617e-01 );}

zone250{e1 ( -8.308985e-02 -1.300292e-01 8.166149e-01 ); e2 ( 9.897594e-01 -1.167576e-01 8.212172e-02 );}

zone251{e1 ( 2.956696e-02 8.340333e-02 8.125558e-01 ); e2 ( 9.871675e-01 -1.584747e-01 -1.965040e-02 );}

zone252{e1 ( 1.188096e-01 3.048222e-01 7.967050e-01 ); e2 ( 9.785000e-01 -1.932828e-01 -7.196823e-02 );}

zone253{e1 ( 1.330586e-01 4.950827e-01 7.374673e-01 ); e2 ( 9.790826e-01 -1.988302e-01 -4.317254e-02 );}

zone254{e1 ( 1.669179e-01 9.492562e-01 2.166475e-01 ); e2 ( 9.856107e-01 -1.657773e-01 -3.300665e-02 );}

zone255{e1 ( 1.419579e-01 9.657541e-01 -2.171233e-01 ); e2 ( 9.883592e-01 -1.504149e-01 -2.283644e-02 );}

zone256{e1 ( 1.693540e-01 8.037179e-01 -5.535045e-01 ); e2 ( 9.803862e-01 -1.965470e-01 1.456907e-02 );}

zone257{e1 ( 1.594185e-01 5.389828e-01 -6.902747e-01 ); e2 ( 9.727673e-01 -2.268598e-01 4.752246e-02 );}

zone258{e1 ( 1.092356e-01 2.935274e-01 -7.117228e-01 ); e2 ( 9.738452e-01 -2.194258e-01 5.897281e-02 );}

zone259{e1 ( 1.247443e-01 2.374509e-01 -7.431005e-01 ); e2 ( 9.741685e-01 -2.031481e-01 9.862368e-02 );}

zone260{e1 ( 2.021011e-01 3.330277e-01 -7.057232e-01 ); e2 ( 9.647652e-01 -1.811937e-01 1.907798e-01 );}

zone261{e1 ( 2.696371e-01 4.366256e-01 -6.452131e-01 ); e2 ( 9.448350e-01 -1.675101e-01 2.814734e-01 );}

zone262{e1 ( 2.539271e-01 4.118781e-01 -6.917549e-01 ); e2 ( 9.530191e-01 -1.213015e-01 2.775616e-01 );}

zone263{e1 ( 1.039119e-01 2.004201e-01 -8.447647e-01 ); e2 ( 9.928450e-01 -1.571468e-02 1.183715e-01 );}

zone264{e1 ( 6.826358e-02 7.334174e-02 -9.086359e-01 ); e2 ( 9.966837e-01 2.622113e-02 7.703226e-02 );}

zone265{e1 ( 2.651636e-01 2.354015e-01 -8.553037e-01 ); e2 ( 9.574625e-01 -4.117021e-02 2.856058e-01 );}

zone266{e1 ( 6.425533e-01 4.645199e-01 -5.210248e-01 ); e2 ( 7.059782e-01 -2.226266e-01 6.723334e-01 );}

zone267{e1 ( 7.924035e-01 5.237780e-01 -2.241453e-01 ); e2 ( 4.319940e-01 -2.878623e-01 8.547026e-01 );}

zone268{e1 ( 8.658795e-01 4.568159e-01 -1.323619e-01 ); e2 ( 2.789858e-01 -2.610093e-01 9.241434e-01 );}

zone269{e1 ( 9.343713e-01 2.855520e-01 -1.824709e-01 ); e2 ( 2.426338e-01 -1.851876e-01 9.522785e-01 );}

zone270{e1 ( 9.616129e-01 8.255486e-02 -2.570779e-01 ); e2 ( 2.640857e-01 -8.239419e-02 9.609734e-01 );}

zone271{e1 ( 9.437697e-01 -1.196471e-01 -3.073576e-01 ); e2 ( 3.123874e-01 2.365402e-02 9.496603e-01 );}

zone272{e1 ( 8.952445e-01 -3.163331e-01 -3.027052e-01 ); e2 ( 3.521518e-01 1.065608e-01 9.298569e-01 );}

zone273{e1 ( 8.279968e-01 -4.718261e-01 -2.743877e-01 ); e2 ( 3.962836e-01 1.707321e-01 9.021141e-01 );}

zone274{e1 ( 7.586258e-01 -5.158741e-01 -3.487234e-01 ); e2 ( 5.197760e-01 2.035261e-01 8.297048e-01 );}

zone275{e1 ( 6.125343e-01 -4.477446e-01 -5.873011e-01 ); e2 ( 7.415383e-01 1.599498e-01 6.515650e-01 );}

zone276{e1 ( 3.169324e-01 -2.745597e-01 -8.409579e-01 ); e2 ( 9.385681e-01 3.092694e-02 3.437055e-01 );}

zone277{e1 ( 1.565258e-01 -1.667309e-01 -8.923350e-01 ); e2 ( 9.845344e-01 -1.121797e-02 1.748318e-01 );}

zone278{e1 ( 1.464949e-01 -2.182296e-01 -8.503339e-01 ); e2 ( 9.862581e-01 2.687385e-02 1.630114e-01 );}

zone279{e1 ( 1.798255e-01 -2.841716e-01 -7.999430e-01 ); e2 ( 9.781962e-01 8.274481e-02 1.904875e-01 );}

zone280{e1 ( 1.724746e-01 -2.871703e-01 -7.847322e-01 ); e2 ( 9.774804e-01 1.274519e-01 1.681904e-01 );}
