FoamFile
{
	version	2.0;
	format	ascii;
	class	dictionary;
	location	"system";
	object	fvOptions;
}porosityInzone0
{
	active	true;
	type	explicitPorositySource;
	explicitPorositySourceCoeffs
	{
		type	DarcyForchheimer;
		DarcyForchheimerCoeffs
		{
			d	(0.0 0.0 0.0);
			f	(3.087047e+00 9.048241e-01 9.048241e-01);
			coordinateSystem
			{
				type	cartesian;
				origin	(0.0 0.0 0.0);
				coordinateRotation
				{
					type	axesRotation;
					e1	( 1.126124e-01 -0.000000e+00 9.936390e-01 );
					e2	( -9.936390e-01 0.000000e+00 1.126124e-01 );
				}
			}
			rho	rho;
			mu	mu;
		}
		selectionMode	cellZone;
		cellZone	zone0;
	}
}
porosityInzone1
{
	active	true;
	type	explicitPorositySource;
	explicitPorositySourceCoeffs
	{
		type	DarcyForchheimer;
		DarcyForchheimerCoeffs
		{
			d	(0.0 0.0 0.0);
			f	(3.063397e+00 8.978921e-01 8.978921e-01);
			coordinateSystem
			{
				type	cartesian;
				origin	(0.0 0.0 0.0);
				coordinateRotation
				{
					type	axesRotation;
					e1	( 1.124753e-01 -0.000000e+00 9.924288e-01 );
					e2	( -9.933598e-01 2.370595e-02 1.125808e-01 );
				}
			}
			rho	rho;
			mu	mu;
		}
		selectionMode	cellZone;
		cellZone	zone1;
	}
}
porosityInzone2
{
	active	true;
	type	explicitPorositySource;
	explicitPorositySourceCoeffs
	{
		type	DarcyForchheimer;
		DarcyForchheimerCoeffs
		{
			d	(0.0 0.0 0.0);
			f	(3.063397e+00 8.978921e-01 8.978921e-01);
			coordinateSystem
			{
				type	cartesian;
				origin	(0.0 0.0 0.0);
				coordinateRotation
				{
					type	axesRotation;
					e1	( 1.120668e-01 -0.000000e+00 9.888246e-01 );
					e2	( -9.925234e-01 4.737199e-02 1.124860e-01 );
				}
			}
			rho	rho;
			mu	mu;
		}
		selectionMode	cellZone;
		cellZone	zone2;
	}
}
porosityInzone3
{
	active	true;
	type	explicitPorositySource;
	explicitPorositySourceCoeffs
	{
		type	DarcyForchheimer;
		DarcyForchheimerCoeffs
		{
			d	(0.0 0.0 0.0);
			f	(3.063397e+00 8.978921e-01 8.978921e-01);
			coordinateSystem
			{
				type	cartesian;
				origin	(0.0 0.0 0.0);
				coordinateRotation
				{
					type	axesRotation;
					e1	( 1.113958e-01 -0.000000e+00 9.829039e-01 );
					e2	( -9.911343e-01 7.095854e-02 1.123286e-01 );
				}
			}
			rho	rho;
			mu	mu;
		}
		selectionMode	cellZone;
		cellZone	zone3;
	}
}
porosityInzone4
{
	active	true;
	type	explicitPorositySource;
	explicitPorositySourceCoeffs
	{
		type	DarcyForchheimer;
		DarcyForchheimerCoeffs
		{
			d	(0.0 0.0 0.0);
			f	(2.535858e+00 7.432688e-01 7.432688e-01);
			coordinateSystem
			{
				type	cartesian;
				origin	(0.0 0.0 0.0);
				coordinateRotation
				{
					type	axesRotation;
					e1	( 1.104763e-01 -0.000000e+00 9.747907e-01 );
					e2	( -9.891992e-01 9.442667e-02 1.121093e-01 );
				}
			}
			rho	rho;
			mu	mu;
		}
		selectionMode	cellZone;
		cellZone	zone4;
	}
}
porosityInzone5
{
	active	true;
	type	explicitPorositySource;
	explicitPorositySourceCoeffs
	{
		type	DarcyForchheimer;
		DarcyForchheimerCoeffs
		{
			d	(0.0 0.0 0.0);
			f	(2.210598e+00 6.479340e-01 6.479340e-01);
			coordinateSystem
			{
				type	cartesian;
				origin	(0.0 0.0 0.0);
				coordinateRotation
				{
					type	axesRotation;
					e1	( 1.093269e-01 -0.000000e+00 9.646489e-01 );
					e2	( -9.867279e-01 1.177384e-01 1.118292e-01 );
				}
			}
			rho	rho;
			mu	mu;
		}
		selectionMode	cellZone;
		cellZone	zone5;
	}
}
porosityInzone6
{
	active	true;
	type	explicitPorositySource;
	explicitPorositySourceCoeffs
	{
		type	DarcyForchheimer;
		DarcyForchheimerCoeffs
		{
			d	(0.0 0.0 0.0);
			f	(2.535858e+00 7.432688e-01 7.432688e-01);
			coordinateSystem
			{
				type	cartesian;
				origin	(0.0 0.0 0.0);
				coordinateRotation
				{
					type	axesRotation;
					e1	( 1.079696e-01 -0.000000e+00 9.526728e-01 );
					e2	( -9.837323e-01 1.408572e-01 1.114897e-01 );
				}
			}
			rho	rho;
			mu	mu;
		}
		selectionMode	cellZone;
		cellZone	zone6;
	}
}
porosityInzone7
{
	active	true;
	type	explicitPorositySource;
	explicitPorositySourceCoeffs
	{
		type	DarcyForchheimer;
		DarcyForchheimerCoeffs
		{
			d	(0.0 0.0 0.0);
			f	(2.210598e+00 6.479340e-01 6.479340e-01);
			coordinateSystem
			{
				type	cartesian;
				origin	(0.0 0.0 0.0);
				coordinateRotation
				{
					type	axesRotation;
					e1	( 1.064289e-01 -0.000000e+00 9.390784e-01 );
					e2	( -9.802271e-01 1.637479e-01 1.110924e-01 );
				}
			}
			rho	rho;
			mu	mu;
		}
		selectionMode	cellZone;
		cellZone	zone7;
	}
}
porosityInzone8
{
	active	true;
	type	explicitPorositySource;
	explicitPorositySourceCoeffs
	{
		type	DarcyForchheimer;
		DarcyForchheimerCoeffs
		{
			d	(0.0 0.0 0.0);
			f	(2.721860e+00 7.977866e-01 7.977866e-01);
			coordinateSystem
			{
				type	cartesian;
				origin	(0.0 0.0 0.0);
				coordinateRotation
				{
					type	axesRotation;
					e1	( 1.047306e-01 -0.000000e+00 9.240931e-01 );
					e2	( -9.762287e-01 1.863771e-01 1.106393e-01 );
				}
			}
			rho	rho;
			mu	mu;
		}
		selectionMode	cellZone;
		cellZone	zone8;
	}
}
porosityInzone9
{
	active	true;
	type	explicitPorositySource;
	explicitPorositySourceCoeffs
	{
		type	DarcyForchheimer;
		DarcyForchheimerCoeffs
		{
			d	(0.0 0.0 0.0);
			f	(3.087047e+00 9.048243e-01 9.048243e-01);
			coordinateSystem
			{
				type	cartesian;
				origin	(0.0 0.0 0.0);
				coordinateRotation
				{
					type	axesRotation;
					e1	( 1.029007e-01 -0.000000e+00 9.079474e-01 );
					e2	( -9.717559e-01 2.087135e-01 1.101323e-01 );
				}
			}
			rho	rho;
			mu	mu;
		}
		selectionMode	cellZone;
		cellZone	zone9;
	}
}
porosityInzone10
{
	active	true;
	type	explicitPorositySource;
	explicitPorositySourceCoeffs
	{
		type	DarcyForchheimer;
		DarcyForchheimerCoeffs
		{
			d	(0.0 0.0 0.0);
			f	(2.473469e+00 7.249823e-01 7.249823e-01);
			coordinateSystem
			{
				type	cartesian;
				origin	(0.0 0.0 0.0);
				coordinateRotation
				{
					type	axesRotation;
					e1	( 3.083447e-01 4.033660e-01 7.742993e-01 );
					e2	( -9.614695e-01 2.523940e-01 1.089665e-01 );
				}
			}
			rho	rho;
			mu	mu;
		}
		selectionMode	cellZone;
		cellZone	zone10;
	}
}
porosityInzone11
{
	active	true;
	type	explicitPorositySource;
	explicitPorositySourceCoeffs
	{
		type	DarcyForchheimer;
		DarcyForchheimerCoeffs
		{
			d	(0.0 0.0 0.0);
			f	(2.645602e+00 7.754351e-01 7.754351e-01);
			coordinateSystem
			{
				type	cartesian;
				origin	(0.0 0.0 0.0);
				coordinateRotation
				{
					type	axesRotation;
					e1	( 4.783014e-01 8.746083e-01 0.000000e+00 );
					e2	( -9.635310e-01 2.529352e-01 8.736015e-02 );
				}
			}
			rho	rho;
			mu	mu;
		}
		selectionMode	cellZone;
		cellZone	zone11;
	}
}
porosityInzone12
{
	active	true;
	type	explicitPorositySource;
	explicitPorositySourceCoeffs
	{
		type	DarcyForchheimer;
		DarcyForchheimerCoeffs
		{
			d	(0.0 0.0 0.0);
			f	(2.633387e+00 7.718549e-01 7.718549e-01);
			coordinateSystem
			{
				type	cartesian;
				origin	(0.0 0.0 0.0);
				coordinateRotation
				{
					type	axesRotation;
					e1	( 4.789607e-01 8.758138e-01 0.000000e+00 );
					e2	( -9.651436e-01 2.533585e-01 6.562977e-02 );
				}
			}
			rho	rho;
			mu	mu;
		}
		selectionMode	cellZone;
		cellZone	zone12;
	}
}
porosityInzone13
{
	active	true;
	type	explicitPorositySource;
	explicitPorositySourceCoeffs
	{
		type	DarcyForchheimer;
		DarcyForchheimerCoeffs
		{
			d	(0.0 0.0 0.0);
			f	(3.049893e+00 8.939340e-01 8.939340e-01);
			coordinateSystem
			{
				type	cartesian;
				origin	(0.0 0.0 0.0);
				coordinateRotation
				{
					type	axesRotation;
					e1	( 4.794333e-01 8.766780e-01 0.000000e+00 );
					e2	( -9.663004e-01 2.536622e-01 4.380562e-02 );
				}
			}
			rho	rho;
			mu	mu;
		}
		selectionMode	cellZone;
		cellZone	zone13;
	}
}
porosityInzone14
{
	active	true;
	type	explicitPorositySource;
	explicitPorositySourceCoeffs
	{
		type	DarcyForchheimer;
		DarcyForchheimerCoeffs
		{
			d	(0.0 0.0 0.0);
			f	(3.049893e+00 8.939341e-01 8.939341e-01);
			coordinateSystem
			{
				type	cartesian;
				origin	(0.0 0.0 0.0);
				coordinateRotation
				{
					type	axesRotation;
					e1	( 4.797175e-01 8.771977e-01 0.000000e+00 );
					e2	( -9.669965e-01 2.538449e-01 2.191859e-02 );
				}
			}
			rho	rho;
			mu	mu;
		}
		selectionMode	cellZone;
		cellZone	zone14;
	}
}
porosityInzone15
{
	active	true;
	type	explicitPorositySource;
	explicitPorositySourceCoeffs
	{
		type	DarcyForchheimer;
		DarcyForchheimerCoeffs
		{
			d	(0.0 0.0 0.0);
			f	(3.049893e+00 8.939340e-01 8.939340e-01);
			coordinateSystem
			{
				type	cartesian;
				origin	(0.0 0.0 0.0);
				coordinateRotation
				{
					type	axesRotation;
					e1	( 4.798123e-01 8.773711e-01 0.000000e+00 );
					e2	( -9.672289e-01 2.539059e-01 0.000000e+00 );
				}
			}
			rho	rho;
			mu	mu;
		}
		selectionMode	cellZone;
		cellZone	zone15;
	}
}
porosityInzone16
{
	active	true;
	type	explicitPorositySource;
	explicitPorositySourceCoeffs
	{
		type	DarcyForchheimer;
		DarcyForchheimerCoeffs
		{
			d	(0.0 0.0 0.0);
			f	(2.885977e+00 8.458898e-01 8.458898e-01);
			coordinateSystem
			{
				type	cartesian;
				origin	(0.0 0.0 0.0);
				coordinateRotation
				{
					type	axesRotation;
					e1	( 4.797175e-01 8.771977e-01 0.000000e+00 );
					e2	( -9.669965e-01 2.538449e-01 -2.191859e-02 );
				}
			}
			rho	rho;
			mu	mu;
		}
		selectionMode	cellZone;
		cellZone	zone16;
	}
}
porosityInzone17
{
	active	true;
	type	explicitPorositySource;
	explicitPorositySourceCoeffs
	{
		type	DarcyForchheimer;
		DarcyForchheimerCoeffs
		{
			d	(0.0 0.0 0.0);
			f	(2.633387e+00 7.718549e-01 7.718549e-01);
			coordinateSystem
			{
				type	cartesian;
				origin	(0.0 0.0 0.0);
				coordinateRotation
				{
					type	axesRotation;
					e1	( 4.794333e-01 8.766780e-01 0.000000e+00 );
					e2	( -9.663004e-01 2.536622e-01 -4.380562e-02 );
				}
			}
			rho	rho;
			mu	mu;
		}
		selectionMode	cellZone;
		cellZone	zone17;
	}
}
porosityInzone18
{
	active	true;
	type	explicitPorositySource;
	explicitPorositySourceCoeffs
	{
		type	DarcyForchheimer;
		DarcyForchheimerCoeffs
		{
			d	(0.0 0.0 0.0);
			f	(2.522544e+00 7.393663e-01 7.393663e-01);
			coordinateSystem
			{
				type	cartesian;
				origin	(0.0 0.0 0.0);
				coordinateRotation
				{
					type	axesRotation;
					e1	( 4.789607e-01 8.758138e-01 0.000000e+00 );
					e2	( -9.651436e-01 2.533585e-01 -6.562977e-02 );
				}
			}
			rho	rho;
			mu	mu;
		}
		selectionMode	cellZone;
		cellZone	zone18;
	}
}
porosityInzone19
{
	active	true;
	type	explicitPorositySource;
	explicitPorositySourceCoeffs
	{
		type	DarcyForchheimer;
		DarcyForchheimerCoeffs
		{
			d	(0.0 0.0 0.0);
			f	(2.522544e+00 7.393663e-01 7.393663e-01);
			coordinateSystem
			{
				type	cartesian;
				origin	(0.0 0.0 0.0);
				coordinateRotation
				{
					type	axesRotation;
					e1	( 4.783014e-01 8.746083e-01 0.000000e+00 );
					e2	( -9.635310e-01 2.529352e-01 -8.736015e-02 );
				}
			}
			rho	rho;
			mu	mu;
		}
		selectionMode	cellZone;
		cellZone	zone19;
	}
}
porosityInzone20
{
	active	true;
	type	explicitPorositySource;
	explicitPorositySourceCoeffs
	{
		type	DarcyForchheimer;
		DarcyForchheimerCoeffs
		{
			d	(0.0 0.0 0.0);
			f	(3.427820e+00 1.004706e+00 1.004706e+00);
			coordinateSystem
			{
				type	cartesian;
				origin	(0.0 0.0 0.0);
				coordinateRotation
				{
					type	axesRotation;
					e1	( 4.129835e-01 6.298822e-01 -6.045593e-01 );
					e2	( -9.614695e-01 2.523940e-01 -1.089666e-01 );
				}
			}
			rho	rho;
			mu	mu;
		}
		selectionMode	cellZone;
		cellZone	zone20;
	}
}
porosityInzone21
{
	active	true;
	type	explicitPorositySource;
	explicitPorositySourceCoeffs
	{
		type	DarcyForchheimer;
		DarcyForchheimerCoeffs
		{
			d	(0.0 0.0 0.0);
			f	(3.063397e+00 8.978921e-01 8.978921e-01);
			coordinateSystem
			{
				type	cartesian;
				origin	(0.0 0.0 0.0);
				coordinateRotation
				{
					type	axesRotation;
					e1	( 1.009649e-01 0.000000e+00 -8.908667e-01 );
					e2	( -9.668289e-01 2.307281e-01 -1.095739e-01 );
				}
			}
			rho	rho;
			mu	mu;
		}
		selectionMode	cellZone;
		cellZone	zone21;
	}
}
porosityInzone22
{
	active	true;
	type	explicitPorositySource;
	explicitPorositySourceCoeffs
	{
		type	DarcyForchheimer;
		DarcyForchheimerCoeffs
		{
			d	(0.0 0.0 0.0);
			f	(2.356673e+00 6.907489e-01 6.907489e-01);
			coordinateSystem
			{
				type	cartesian;
				origin	(0.0 0.0 0.0);
				coordinateRotation
				{
					type	axesRotation;
					e1	( 1.029007e-01 0.000000e+00 -9.079474e-01 );
					e2	( -9.717559e-01 2.087135e-01 -1.101323e-01 );
				}
			}
			rho	rho;
			mu	mu;
		}
		selectionMode	cellZone;
		cellZone	zone22;
	}
}
porosityInzone23
{
	active	true;
	type	explicitPorositySource;
	explicitPorositySourceCoeffs
	{
		type	DarcyForchheimer;
		DarcyForchheimerCoeffs
		{
			d	(0.0 0.0 0.0);
			f	(2.275225e+00 6.668764e-01 6.668764e-01);
			coordinateSystem
			{
				type	cartesian;
				origin	(0.0 0.0 0.0);
				coordinateRotation
				{
					type	axesRotation;
					e1	( 1.047306e-01 0.000000e+00 -9.240931e-01 );
					e2	( -9.762287e-01 1.863771e-01 -1.106393e-01 );
				}
			}
			rho	rho;
			mu	mu;
		}
		selectionMode	cellZone;
		cellZone	zone23;
	}
}
porosityInzone24
{
	active	true;
	type	explicitPorositySource;
	explicitPorositySourceCoeffs
	{
		type	DarcyForchheimer;
		DarcyForchheimerCoeffs
		{
			d	(0.0 0.0 0.0);
			f	(2.456220e+00 7.199266e-01 7.199266e-01);
			coordinateSystem
			{
				type	cartesian;
				origin	(0.0 0.0 0.0);
				coordinateRotation
				{
					type	axesRotation;
					e1	( 1.064289e-01 0.000000e+00 -9.390784e-01 );
					e2	( -9.802271e-01 1.637479e-01 -1.110924e-01 );
				}
			}
			rho	rho;
			mu	mu;
		}
		selectionMode	cellZone;
		cellZone	zone24;
	}
}
porosityInzone25
{
	active	true;
	type	explicitPorositySource;
	explicitPorositySourceCoeffs
	{
		type	DarcyForchheimer;
		DarcyForchheimerCoeffs
		{
			d	(0.0 0.0 0.0);
			f	(2.210598e+00 6.479340e-01 6.479340e-01);
			coordinateSystem
			{
				type	cartesian;
				origin	(0.0 0.0 0.0);
				coordinateRotation
				{
					type	axesRotation;
					e1	( 1.079696e-01 0.000000e+00 -9.526728e-01 );
					e2	( -9.837323e-01 1.408572e-01 -1.114897e-01 );
				}
			}
			rho	rho;
			mu	mu;
		}
		selectionMode	cellZone;
		cellZone	zone25;
	}
}
porosityInzone26
{
	active	true;
	type	explicitPorositySource;
	explicitPorositySourceCoeffs
	{
		type	DarcyForchheimer;
		DarcyForchheimerCoeffs
		{
			d	(0.0 0.0 0.0);
			f	(2.456220e+00 7.199266e-01 7.199266e-01);
			coordinateSystem
			{
				type	cartesian;
				origin	(0.0 0.0 0.0);
				coordinateRotation
				{
					type	axesRotation;
					e1	( 1.093269e-01 0.000000e+00 -9.646489e-01 );
					e2	( -9.867279e-01 1.177384e-01 -1.118292e-01 );
				}
			}
			rho	rho;
			mu	mu;
		}
		selectionMode	cellZone;
		cellZone	zone26;
	}
}
porosityInzone27
{
	active	true;
	type	explicitPorositySource;
	explicitPorositySourceCoeffs
	{
		type	DarcyForchheimer;
		DarcyForchheimerCoeffs
		{
			d	(0.0 0.0 0.0);
			f	(3.063397e+00 8.978921e-01 8.978921e-01);
			coordinateSystem
			{
				type	cartesian;
				origin	(0.0 0.0 0.0);
				coordinateRotation
				{
					type	axesRotation;
					e1	( 1.104763e-01 0.000000e+00 -9.747907e-01 );
					e2	( -9.891992e-01 9.442667e-02 -1.121093e-01 );
				}
			}
			rho	rho;
			mu	mu;
		}
		selectionMode	cellZone;
		cellZone	zone27;
	}
}
porosityInzone28
{
	active	true;
	type	explicitPorositySource;
	explicitPorositySourceCoeffs
	{
		type	DarcyForchheimer;
		DarcyForchheimerCoeffs
		{
			d	(0.0 0.0 0.0);
			f	(3.045659e+00 8.926932e-01 8.926932e-01);
			coordinateSystem
			{
				type	cartesian;
				origin	(0.0 0.0 0.0);
				coordinateRotation
				{
					type	axesRotation;
					e1	( 1.113958e-01 0.000000e+00 -9.829039e-01 );
					e2	( -9.911343e-01 7.095854e-02 -1.123286e-01 );
				}
			}
			rho	rho;
			mu	mu;
		}
		selectionMode	cellZone;
		cellZone	zone28;
	}
}
porosityInzone29
{
	active	true;
	type	explicitPorositySource;
	explicitPorositySourceCoeffs
	{
		type	DarcyForchheimer;
		DarcyForchheimerCoeffs
		{
			d	(0.0 0.0 0.0);
			f	(3.120157e+00 9.145287e-01 9.145287e-01);
			coordinateSystem
			{
				type	cartesian;
				origin	(0.0 0.0 0.0);
				coordinateRotation
				{
					type	axesRotation;
					e1	( 1.120668e-01 0.000000e+00 -9.888246e-01 );
					e2	( -9.925234e-01 4.737199e-02 -1.124860e-01 );
				}
			}
			rho	rho;
			mu	mu;
		}
		selectionMode	cellZone;
		cellZone	zone29;
	}
}
porosityInzone30
{
	active	true;
	type	explicitPorositySource;
	explicitPorositySourceCoeffs
	{
		type	DarcyForchheimer;
		DarcyForchheimerCoeffs
		{
			d	(0.0 0.0 0.0);
			f	(3.087047e+00 9.048240e-01 9.048240e-01);
			coordinateSystem
			{
				type	cartesian;
				origin	(0.0 0.0 0.0);
				coordinateRotation
				{
					type	axesRotation;
					e1	( 1.124753e-01 0.000000e+00 -9.924288e-01 );
					e2	( -9.933598e-01 2.370595e-02 -1.125808e-01 );
				}
			}
			rho	rho;
			mu	mu;
		}
		selectionMode	cellZone;
		cellZone	zone30;
	}
}
porosityInzone31
{
	active	true;
	type	explicitPorositySource;
	explicitPorositySourceCoeffs
	{
		type	DarcyForchheimer;
		DarcyForchheimerCoeffs
		{
			d	(0.0 0.0 0.0);
			f	(3.087047e+00 9.048241e-01 9.048241e-01);
			coordinateSystem
			{
				type	cartesian;
				origin	(0.0 0.0 0.0);
				coordinateRotation
				{
					type	axesRotation;
					e1	( 1.126124e-01 0.000000e+00 -9.936390e-01 );
					e2	( -9.936390e-01 -2.991623e-18 -1.126124e-01 );
				}
			}
			rho	rho;
			mu	mu;
		}
		selectionMode	cellZone;
		cellZone	zone31;
	}
}
porosityInzone32
{
	active	true;
	type	explicitPorositySource;
	explicitPorositySourceCoeffs
	{
		type	DarcyForchheimer;
		DarcyForchheimerCoeffs
		{
			d	(0.0 0.0 0.0);
			f	(3.063397e+00 8.978921e-01 8.978921e-01);
			coordinateSystem
			{
				type	cartesian;
				origin	(0.0 0.0 0.0);
				coordinateRotation
				{
					type	axesRotation;
					e1	( 1.124753e-01 0.000000e+00 -9.924288e-01 );
					e2	( -9.933598e-01 -2.370595e-02 -1.125808e-01 );
				}
			}
			rho	rho;
			mu	mu;
		}
		selectionMode	cellZone;
		cellZone	zone32;
	}
}
porosityInzone33
{
	active	true;
	type	explicitPorositySource;
	explicitPorositySourceCoeffs
	{
		type	DarcyForchheimer;
		DarcyForchheimerCoeffs
		{
			d	(0.0 0.0 0.0);
			f	(3.063397e+00 8.978921e-01 8.978921e-01);
			coordinateSystem
			{
				type	cartesian;
				origin	(0.0 0.0 0.0);
				coordinateRotation
				{
					type	axesRotation;
					e1	( 1.120668e-01 0.000000e+00 -9.888246e-01 );
					e2	( -9.925234e-01 -4.737199e-02 -1.124860e-01 );
				}
			}
			rho	rho;
			mu	mu;
		}
		selectionMode	cellZone;
		cellZone	zone33;
	}
}
porosityInzone34
{
	active	true;
	type	explicitPorositySource;
	explicitPorositySourceCoeffs
	{
		type	DarcyForchheimer;
		DarcyForchheimerCoeffs
		{
			d	(0.0 0.0 0.0);
			f	(3.063397e+00 8.978921e-01 8.978921e-01);
			coordinateSystem
			{
				type	cartesian;
				origin	(0.0 0.0 0.0);
				coordinateRotation
				{
					type	axesRotation;
					e1	( 1.113958e-01 0.000000e+00 -9.829039e-01 );
					e2	( -9.911343e-01 -7.095854e-02 -1.123286e-01 );
				}
			}
			rho	rho;
			mu	mu;
		}
		selectionMode	cellZone;
		cellZone	zone34;
	}
}
porosityInzone35
{
	active	true;
	type	explicitPorositySource;
	explicitPorositySourceCoeffs
	{
		type	DarcyForchheimer;
		DarcyForchheimerCoeffs
		{
			d	(0.0 0.0 0.0);
			f	(2.535858e+00 7.432688e-01 7.432688e-01);
			coordinateSystem
			{
				type	cartesian;
				origin	(0.0 0.0 0.0);
				coordinateRotation
				{
					type	axesRotation;
					e1	( 1.104763e-01 0.000000e+00 -9.747907e-01 );
					e2	( -9.891992e-01 -9.442667e-02 -1.121093e-01 );
				}
			}
			rho	rho;
			mu	mu;
		}
		selectionMode	cellZone;
		cellZone	zone35;
	}
}
porosityInzone36
{
	active	true;
	type	explicitPorositySource;
	explicitPorositySourceCoeffs
	{
		type	DarcyForchheimer;
		DarcyForchheimerCoeffs
		{
			d	(0.0 0.0 0.0);
			f	(2.210598e+00 6.479340e-01 6.479340e-01);
			coordinateSystem
			{
				type	cartesian;
				origin	(0.0 0.0 0.0);
				coordinateRotation
				{
					type	axesRotation;
					e1	( 1.093269e-01 0.000000e+00 -9.646489e-01 );
					e2	( -9.867279e-01 -1.177384e-01 -1.118292e-01 );
				}
			}
			rho	rho;
			mu	mu;
		}
		selectionMode	cellZone;
		cellZone	zone36;
	}
}
porosityInzone37
{
	active	true;
	type	explicitPorositySource;
	explicitPorositySourceCoeffs
	{
		type	DarcyForchheimer;
		DarcyForchheimerCoeffs
		{
			d	(0.0 0.0 0.0);
			f	(2.535858e+00 7.432688e-01 7.432688e-01);
			coordinateSystem
			{
				type	cartesian;
				origin	(0.0 0.0 0.0);
				coordinateRotation
				{
					type	axesRotation;
					e1	( 1.079696e-01 0.000000e+00 -9.526728e-01 );
					e2	( -9.837323e-01 -1.408572e-01 -1.114897e-01 );
				}
			}
			rho	rho;
			mu	mu;
		}
		selectionMode	cellZone;
		cellZone	zone37;
	}
}
porosityInzone38
{
	active	true;
	type	explicitPorositySource;
	explicitPorositySourceCoeffs
	{
		type	DarcyForchheimer;
		DarcyForchheimerCoeffs
		{
			d	(0.0 0.0 0.0);
			f	(2.210598e+00 6.479340e-01 6.479340e-01);
			coordinateSystem
			{
				type	cartesian;
				origin	(0.0 0.0 0.0);
				coordinateRotation
				{
					type	axesRotation;
					e1	( 1.064289e-01 0.000000e+00 -9.390784e-01 );
					e2	( -9.802271e-01 -1.637479e-01 -1.110924e-01 );
				}
			}
			rho	rho;
			mu	mu;
		}
		selectionMode	cellZone;
		cellZone	zone38;
	}
}
porosityInzone39
{
	active	true;
	type	explicitPorositySource;
	explicitPorositySourceCoeffs
	{
		type	DarcyForchheimer;
		DarcyForchheimerCoeffs
		{
			d	(0.0 0.0 0.0);
			f	(2.572539e+00 7.540201e-01 7.540201e-01);
			coordinateSystem
			{
				type	cartesian;
				origin	(0.0 0.0 0.0);
				coordinateRotation
				{
					type	axesRotation;
					e1	( 1.047306e-01 0.000000e+00 -9.240931e-01 );
					e2	( -9.762287e-01 -1.863771e-01 -1.106393e-01 );
				}
			}
			rho	rho;
			mu	mu;
		}
		selectionMode	cellZone;
		cellZone	zone39;
	}
}
porosityInzone40
{
	active	true;
	type	explicitPorositySource;
	explicitPorositySourceCoeffs
	{
		type	DarcyForchheimer;
		DarcyForchheimerCoeffs
		{
			d	(0.0 0.0 0.0);
			f	(2.248032e+00 6.589058e-01 6.589058e-01);
			coordinateSystem
			{
				type	cartesian;
				origin	(0.0 0.0 0.0);
				coordinateRotation
				{
					type	axesRotation;
					e1	( 2.501121e-01 -2.864297e-01 -8.247433e-01 );
					e2	( -9.614695e-01 -2.523940e-01 -1.089665e-01 );
				}
			}
			rho	rho;
			mu	mu;
		}
		selectionMode	cellZone;
		cellZone	zone40;
	}
}
porosityInzone41
{
	active	true;
	type	explicitPorositySource;
	explicitPorositySourceCoeffs
	{
		type	DarcyForchheimer;
		DarcyForchheimerCoeffs
		{
			d	(0.0 0.0 0.0);
			f	(2.645602e+00 7.754351e-01 7.754351e-01);
			coordinateSystem
			{
				type	cartesian;
				origin	(0.0 0.0 0.0);
				coordinateRotation
				{
					type	axesRotation;
					e1	( 4.783014e-01 -8.746083e-01 0.000000e+00 );
					e2	( -9.635310e-01 -2.529352e-01 -8.736015e-02 );
				}
			}
			rho	rho;
			mu	mu;
		}
		selectionMode	cellZone;
		cellZone	zone41;
	}
}
porosityInzone42
{
	active	true;
	type	explicitPorositySource;
	explicitPorositySourceCoeffs
	{
		type	DarcyForchheimer;
		DarcyForchheimerCoeffs
		{
			d	(0.0 0.0 0.0);
			f	(2.633387e+00 7.718549e-01 7.718549e-01);
			coordinateSystem
			{
				type	cartesian;
				origin	(0.0 0.0 0.0);
				coordinateRotation
				{
					type	axesRotation;
					e1	( 4.789607e-01 -8.758138e-01 0.000000e+00 );
					e2	( -9.651436e-01 -2.533585e-01 -6.562977e-02 );
				}
			}
			rho	rho;
			mu	mu;
		}
		selectionMode	cellZone;
		cellZone	zone42;
	}
}
porosityInzone43
{
	active	true;
	type	explicitPorositySource;
	explicitPorositySourceCoeffs
	{
		type	DarcyForchheimer;
		DarcyForchheimerCoeffs
		{
			d	(0.0 0.0 0.0);
			f	(3.049893e+00 8.939340e-01 8.939340e-01);
			coordinateSystem
			{
				type	cartesian;
				origin	(0.0 0.0 0.0);
				coordinateRotation
				{
					type	axesRotation;
					e1	( 4.794333e-01 -8.766780e-01 0.000000e+00 );
					e2	( -9.663004e-01 -2.536622e-01 -4.380562e-02 );
				}
			}
			rho	rho;
			mu	mu;
		}
		selectionMode	cellZone;
		cellZone	zone43;
	}
}
porosityInzone44
{
	active	true;
	type	explicitPorositySource;
	explicitPorositySourceCoeffs
	{
		type	DarcyForchheimer;
		DarcyForchheimerCoeffs
		{
			d	(0.0 0.0 0.0);
			f	(3.049893e+00 8.939341e-01 8.939341e-01);
			coordinateSystem
			{
				type	cartesian;
				origin	(0.0 0.0 0.0);
				coordinateRotation
				{
					type	axesRotation;
					e1	( 4.797175e-01 -8.771977e-01 0.000000e+00 );
					e2	( -9.669965e-01 -2.538449e-01 -2.191859e-02 );
				}
			}
			rho	rho;
			mu	mu;
		}
		selectionMode	cellZone;
		cellZone	zone44;
	}
}
porosityInzone45
{
	active	true;
	type	explicitPorositySource;
	explicitPorositySourceCoeffs
	{
		type	DarcyForchheimer;
		DarcyForchheimerCoeffs
		{
			d	(0.0 0.0 0.0);
			f	(3.049893e+00 8.939340e-01 8.939340e-01);
			coordinateSystem
			{
				type	cartesian;
				origin	(0.0 0.0 0.0);
				coordinateRotation
				{
					type	axesRotation;
					e1	( 4.798123e-01 -8.773711e-01 0.000000e+00 );
					e2	( -9.672289e-01 -2.539059e-01 0.000000e+00 );
				}
			}
			rho	rho;
			mu	mu;
		}
		selectionMode	cellZone;
		cellZone	zone45;
	}
}
porosityInzone46
{
	active	true;
	type	explicitPorositySource;
	explicitPorositySourceCoeffs
	{
		type	DarcyForchheimer;
		DarcyForchheimerCoeffs
		{
			d	(0.0 0.0 0.0);
			f	(3.049893e+00 8.939340e-01 8.939340e-01);
			coordinateSystem
			{
				type	cartesian;
				origin	(0.0 0.0 0.0);
				coordinateRotation
				{
					type	axesRotation;
					e1	( 4.797175e-01 -8.771977e-01 0.000000e+00 );
					e2	( -9.669965e-01 -2.538449e-01 2.191859e-02 );
				}
			}
			rho	rho;
			mu	mu;
		}
		selectionMode	cellZone;
		cellZone	zone46;
	}
}
porosityInzone47
{
	active	true;
	type	explicitPorositySource;
	explicitPorositySourceCoeffs
	{
		type	DarcyForchheimer;
		DarcyForchheimerCoeffs
		{
			d	(0.0 0.0 0.0);
			f	(2.769087e+00 8.116291e-01 8.116291e-01);
			coordinateSystem
			{
				type	cartesian;
				origin	(0.0 0.0 0.0);
				coordinateRotation
				{
					type	axesRotation;
					e1	( 4.794333e-01 -8.766780e-01 0.000000e+00 );
					e2	( -9.663004e-01 -2.536622e-01 4.380562e-02 );
				}
			}
			rho	rho;
			mu	mu;
		}
		selectionMode	cellZone;
		cellZone	zone47;
	}
}
porosityInzone48
{
	active	true;
	type	explicitPorositySource;
	explicitPorositySourceCoeffs
	{
		type	DarcyForchheimer;
		DarcyForchheimerCoeffs
		{
			d	(0.0 0.0 0.0);
			f	(2.522544e+00 7.393663e-01 7.393663e-01);
			coordinateSystem
			{
				type	cartesian;
				origin	(0.0 0.0 0.0);
				coordinateRotation
				{
					type	axesRotation;
					e1	( 4.789607e-01 -8.758138e-01 0.000000e+00 );
					e2	( -9.651436e-01 -2.533585e-01 6.562977e-02 );
				}
			}
			rho	rho;
			mu	mu;
		}
		selectionMode	cellZone;
		cellZone	zone48;
	}
}
porosityInzone49
{
	active	true;
	type	explicitPorositySource;
	explicitPorositySourceCoeffs
	{
		type	DarcyForchheimer;
		DarcyForchheimerCoeffs
		{
			d	(0.0 0.0 0.0);
			f	(2.522544e+00 7.393663e-01 7.393663e-01);
			coordinateSystem
			{
				type	cartesian;
				origin	(0.0 0.0 0.0);
				coordinateRotation
				{
					type	axesRotation;
					e1	( 4.783014e-01 -8.746083e-01 0.000000e+00 );
					e2	( -9.635310e-01 -2.529352e-01 8.736015e-02 );
				}
			}
			rho	rho;
			mu	mu;
		}
		selectionMode	cellZone;
		cellZone	zone49;
	}
}
porosityInzone50
{
	active	true;
	type	explicitPorositySource;
	explicitPorositySourceCoeffs
	{
		type	DarcyForchheimer;
		DarcyForchheimerCoeffs
		{
			d	(0.0 0.0 0.0);
			f	(3.391668e+00 9.941096e-01 9.941096e-01);
			coordinateSystem
			{
				type	cartesian;
				origin	(0.0 0.0 0.0);
				coordinateRotation
				{
					type	axesRotation;
					e1	( 4.129835e-01 -6.298822e-01 6.045593e-01 );
					e2	( -9.614695e-01 -2.523940e-01 1.089666e-01 );
				}
			}
			rho	rho;
			mu	mu;
		}
		selectionMode	cellZone;
		cellZone	zone50;
	}
}
porosityInzone51
{
	active	true;
	type	explicitPorositySource;
	explicitPorositySourceCoeffs
	{
		type	DarcyForchheimer;
		DarcyForchheimerCoeffs
		{
			d	(0.0 0.0 0.0);
			f	(3.063397e+00 8.978921e-01 8.978921e-01);
			coordinateSystem
			{
				type	cartesian;
				origin	(0.0 0.0 0.0);
				coordinateRotation
				{
					type	axesRotation;
					e1	( 1.009649e-01 -0.000000e+00 8.908667e-01 );
					e2	( -9.668289e-01 -2.307281e-01 1.095739e-01 );
				}
			}
			rho	rho;
			mu	mu;
		}
		selectionMode	cellZone;
		cellZone	zone51;
	}
}
porosityInzone52
{
	active	true;
	type	explicitPorositySource;
	explicitPorositySourceCoeffs
	{
		type	DarcyForchheimer;
		DarcyForchheimerCoeffs
		{
			d	(0.0 0.0 0.0);
			f	(2.356673e+00 6.907489e-01 6.907489e-01);
			coordinateSystem
			{
				type	cartesian;
				origin	(0.0 0.0 0.0);
				coordinateRotation
				{
					type	axesRotation;
					e1	( 1.029007e-01 -0.000000e+00 9.079474e-01 );
					e2	( -9.717559e-01 -2.087135e-01 1.101323e-01 );
				}
			}
			rho	rho;
			mu	mu;
		}
		selectionMode	cellZone;
		cellZone	zone52;
	}
}
porosityInzone53
{
	active	true;
	type	explicitPorositySource;
	explicitPorositySourceCoeffs
	{
		type	DarcyForchheimer;
		DarcyForchheimerCoeffs
		{
			d	(0.0 0.0 0.0);
			f	(2.275225e+00 6.668764e-01 6.668764e-01);
			coordinateSystem
			{
				type	cartesian;
				origin	(0.0 0.0 0.0);
				coordinateRotation
				{
					type	axesRotation;
					e1	( 1.047306e-01 -0.000000e+00 9.240931e-01 );
					e2	( -9.762287e-01 -1.863771e-01 1.106393e-01 );
				}
			}
			rho	rho;
			mu	mu;
		}
		selectionMode	cellZone;
		cellZone	zone53;
	}
}
porosityInzone54
{
	active	true;
	type	explicitPorositySource;
	explicitPorositySourceCoeffs
	{
		type	DarcyForchheimer;
		DarcyForchheimerCoeffs
		{
			d	(0.0 0.0 0.0);
			f	(2.456220e+00 7.199266e-01 7.199266e-01);
			coordinateSystem
			{
				type	cartesian;
				origin	(0.0 0.0 0.0);
				coordinateRotation
				{
					type	axesRotation;
					e1	( 1.064289e-01 -0.000000e+00 9.390784e-01 );
					e2	( -9.802271e-01 -1.637479e-01 1.110924e-01 );
				}
			}
			rho	rho;
			mu	mu;
		}
		selectionMode	cellZone;
		cellZone	zone54;
	}
}
porosityInzone55
{
	active	true;
	type	explicitPorositySource;
	explicitPorositySourceCoeffs
	{
		type	DarcyForchheimer;
		DarcyForchheimerCoeffs
		{
			d	(0.0 0.0 0.0);
			f	(2.210598e+00 6.479340e-01 6.479340e-01);
			coordinateSystem
			{
				type	cartesian;
				origin	(0.0 0.0 0.0);
				coordinateRotation
				{
					type	axesRotation;
					e1	( 1.079696e-01 -0.000000e+00 9.526728e-01 );
					e2	( -9.837323e-01 -1.408572e-01 1.114897e-01 );
				}
			}
			rho	rho;
			mu	mu;
		}