FoamFile
{
    version    2.0;
    format    ascii;
    class    dictionary;
    location    "system";
    object    geometricCalcDict;
}
//*******************************************************//
zone0{e1 ( -9.871494e-01 -2.977754e-03 -1.597723e-01 ); e2 ( -9.971606e-01 -1.645622e-03 7.528629e-02 );}

zone1{e1 ( -9.868730e-01 -8.089059e-02 -1.352429e-01 ); e2 ( -9.968887e-01 2.399044e-02 7.508228e-02 );}

zone2{e1 ( -9.727151e-01 -1.394831e-01 -1.715430e-01 ); e2 ( -9.960429e-01 4.915902e-02 7.404008e-02 );}

zone3{e1 ( -9.620401e-01 -2.046813e-01 -1.470874e-01 ); e2 ( -9.946080e-01 7.399726e-02 7.265883e-02 );}

zone4{e1 ( -9.300608e-01 -3.028053e-01 -1.535217e-01 ); e2 ( -9.927395e-01 9.753076e-02 7.039868e-02 );}

zone5{e1 ( -8.925507e-01 -3.703715e-01 -1.860565e-01 ); e2 ( -9.905286e-01 1.196107e-01 6.742744e-02 );}

zone6{e1 ( -8.577841e-01 -4.159801e-01 -2.154987e-01 ); e2 ( -9.880375e-01 1.403664e-01 6.386896e-02 );}

zone7{e1 ( -8.192618e-01 -4.556736e-01 -2.495270e-01 ); e2 ( -9.853263e-01 1.598468e-01 5.984136e-02 );}

zone8{e1 ( -7.830978e-01 -4.685218e-01 -3.023407e-01 ); e2 ( -9.824530e-01 1.780156e-01 5.564714e-02 );}

zone9{e1 ( -6.713533e-01 -5.180591e-01 -4.285400e-01 ); e2 ( -9.792442e-01 1.958014e-01 5.237039e-02 );}

zone10{e1 ( -6.347031e-01 -5.621205e-01 -4.068176e-01 ); e2 ( -9.766455e-01 2.095645e-01 4.739607e-02 );}

zone11{e1 ( -7.810888e-01 -4.559962e-01 -8.377133e-02 ); e2 ( -9.736201e-01 2.238796e-01 4.406523e-02 );}

zone12{e1 ( -6.654164e-01 5.921908e-03 5.240208e-01 ); e2 ( -9.691212e-01 2.428806e-01 4.257995e-02 );}

zone13{e1 ( 3.145886e-01 5.760167e-01 6.096409e-01 ); e2 ( -9.605879e-01 2.771385e-01 2.156753e-02 );}

zone14{e1 ( 5.545672e-01 8.298343e-01 6.044836e-02 ); e2 ( -9.654638e-01 2.604611e-01 6.304438e-03 );}

zone15{e1 ( 5.839121e-01 8.116120e-01 -1.823661e-02 ); e2 ( -9.670850e-01 2.544422e-01 2.410686e-03 );}

zone16{e1 ( 6.091718e-01 7.875197e-01 -9.333882e-02 ); e2 ( -9.654776e-01 2.604802e-01 -1.767836e-03 );}

zone17{e1 ( 5.015814e-01 6.940471e-01 -4.118806e-01 ); e2 ( -9.606203e-01 2.771161e-01 -2.037883e-02 );}

zone18{e1 ( -2.250861e-01 3.489016e-01 -7.583696e-01 ); e2 ( -9.645088e-01 2.617625e-01 -3.468733e-02 );}

zone19{e1 ( -7.608398e-01 -1.425248e-01 -4.032363e-01 ); e2 ( -9.696670e-01 2.407322e-01 -4.235492e-02 );}

zone20{e1 ( -7.907105e-01 -4.205617e-01 1.525694e-01 ); e2 ( -9.739050e-01 2.224228e-01 -4.513415e-02 );}

zone21{e1 ( -6.616571e-01 -4.591606e-01 4.687777e-01 ); e2 ( -9.772298e-01 2.064008e-01 -4.919949e-02 );}

zone22{e1 ( -6.080068e-01 -4.200256e-01 5.813340e-01 ); e2 ( -9.803658e-01 1.897236e-01 -5.373823e-02 );}

zone23{e1 ( -6.543008e-01 -4.149321e-01 5.350809e-01 ); e2 ( -9.834134e-01 1.717102e-01 -5.842677e-02 );}

zone24{e1 ( -7.111702e-01 -4.153169e-01 4.765526e-01 ); e2 ( -9.861460e-01 1.530508e-01 -6.396478e-02 );}

zone25{e1 ( -7.873307e-01 -3.963960e-01 3.936862e-01 ); e2 ( -9.885972e-01 1.335578e-01 -6.955475e-02 );}

zone26{e1 ( -8.547485e-01 -3.672870e-01 3.032241e-01 ); e2 ( -9.907881e-01 1.130421e-01 -7.456872e-02 );}

zone27{e1 ( -9.025673e-01 -3.351156e-01 2.229471e-01 ); e2 ( -9.926706e-01 9.156437e-02 -7.887377e-02 );}

zone28{e1 ( -9.430455e-01 -2.739471e-01 1.552723e-01 ); e2 ( -9.941873e-01 6.919125e-02 -8.248730e-02 );}

zone29{e1 ( -9.751610e-01 -1.721722e-01 1.209805e-01 ); e2 ( -9.953308e-01 4.552891e-02 -8.511045e-02 );}

zone30{e1 ( -9.899842e-01 -6.496905e-02 1.205963e-01 ); e2 ( -9.960255e-01 2.077465e-02 -8.661220e-02 );}

zone31{e1 ( -9.933576e-01 2.672352e-02 1.119170e-01 ); e2 ( -9.962007e-01 -4.423874e-03 -8.697524e-02 );}

zone32{e1 ( -9.917391e-01 9.356204e-02 8.016837e-02 ); e2 ( -9.958384e-01 -2.953597e-02 -8.621788e-02 );}

zone33{e1 ( -9.824448e-01 1.643534e-01 5.331002e-02 ); e2 ( -9.949355e-01 -5.437094e-02 -8.454137e-02 );}

zone34{e1 ( -9.603309e-01 2.570799e-01 2.283549e-02 ); e2 ( -9.935476e-01 -7.841728e-02 -8.193778e-02 );}

zone35{e1 ( -9.342270e-01 3.266076e-01 3.807981e-02 ); e2 ( -9.917665e-01 -1.010760e-01 -7.863147e-02 );}

zone36{e1 ( -9.167750e-01 3.506670e-01 8.801983e-02 ); e2 ( -9.896351e-01 -1.225826e-01 -7.480559e-02 );}

zone37{e1 ( -8.853886e-01 3.846810e-01 1.612247e-01 ); e2 ( -9.871056e-01 -1.435574e-01 -7.080777e-02 );}

zone38{e1 ( -7.945594e-01 4.521049e-01 3.216703e-01 ); e2 ( -9.843234e-01 -1.632381e-01 -6.678873e-02 );}

zone39{e1 ( -6.808488e-01 5.276376e-01 4.283838e-01 ); e2 ( -9.815696e-01 -1.807036e-01 -6.218785e-02 );}

zone40{e1 ( -6.744448e-01 5.451710e-01 3.914777e-01 ); e2 ( -9.791043e-01 -1.954265e-01 -5.624251e-02 );}

zone41{e1 ( -8.059277e-01 4.375890e-01 1.112176e-01 ); e2 ( -9.761121e-01 -2.110007e-01 -5.180580e-02 );}

zone42{e1 ( -7.385400e-01 1.227751e-02 -4.059625e-01 ); e2 ( -9.719268e-01 -2.301729e-01 -4.877301e-02 );}

zone43{e1 ( 2.939322e-01 -5.168441e-01 -6.297816e-01 ); e2 ( -9.598427e-01 -2.800479e-01 -1.658726e-02 );}

zone44{e1 ( 5.599241e-01 -8.238026e-01 -8.738427e-02 ); e2 ( -9.645059e-01 -2.640595e-01 -9.924619e-04 );}

zone45{e1 ( 5.861421e-01 -8.101669e-01 8.183443e-03 ); e2 ( -9.664243e-01 -2.569286e-01 3.439297e-03 );}

zone46{e1 ( 6.073122e-01 -7.913977e-01 6.959395e-02 ); e2 ( -9.642589e-01 -2.648230e-01 8.571869e-03 );}

zone47{e1 ( 4.576245e-01 -6.943756e-01 4.494200e-01 ); e2 ( -9.590570e-01 -2.819807e-01 2.639326e-02 );}

zone48{e1 ( -3.654289e-01 -2.082062e-01 7.493260e-01 ); e2 ( -9.633601e-01 -2.653573e-01 3.902288e-02 );}

zone49{e1 ( -7.904154e-01 3.148261e-01 2.245999e-01 ); e2 ( -9.686709e-01 -2.447019e-01 4.239898e-02 );}

zone50{e1 ( -6.818889e-01 5.516173e-01 -2.876777e-01 ); e2 ( -9.723912e-01 -2.291176e-01 4.427817e-02 );}

zone51{e1 ( -6.183997e-01 5.717355e-01 -4.211382e-01 ); e2 ( -9.750016e-01 -2.167060e-01 4.909593e-02 );}

zone52{e1 ( -7.218657e-01 4.956537e-01 -3.677351e-01 ); e2 ( -9.780032e-01 -2.016690e-01 5.328540e-02 );}

zone53{e1 ( -8.176650e-01 4.447894e-01 -2.463777e-01 ); e2 ( -9.813580e-01 -1.836124e-01 5.677056e-02 );}

zone54{e1 ( -8.532328e-01 4.123809e-01 -2.079661e-01 ); e2 ( -9.844673e-01 -1.647188e-01 6.076074e-02 );}

zone55{e1 ( -8.749397e-01 3.764405e-01 -2.144530e-01 ); e2 ( -9.873996e-01 -1.445389e-01 6.442519e-02 );}

zone56{e1 ( -8.946431e-01 3.372429e-01 -2.308771e-01 ); e2 ( -9.900565e-01 -1.233055e-01 6.770493e-02 );}

zone57{e1 ( -9.116114e-01 3.017396e-01 -2.412723e-01 ); e2 ( -9.923934e-01 -1.009230e-01 7.049684e-02 );}

zone58{e1 ( -9.453904e-01 2.162704e-01 -2.210609e-01 ); e2 ( -9.942970e-01 -7.768938e-02 7.306109e-02 );}

zone59{e1 ( -9.803315e-01 1.008892e-01 -1.554775e-01 ); e2 ( -9.958341e-01 -5.281031e-02 7.433316e-02 );}

zone60{e1 ( -9.871494e-01 -2.977754e-03 -1.597723e-01 ); e2 ( -1.597564e-01 -5.189733e-03 9.871428e-01 );}

zone61{e1 ( -9.868730e-01 -8.089059e-02 -1.352429e-01 ); e2 ( -1.329643e-01 -3.393956e-02 9.905395e-01 );}

zone62{e1 ( -9.727151e-01 -1.394831e-01 -1.715430e-01 ); e2 ( -1.641885e-01 -6.548453e-02 9.842530e-01 );}

zone63{e1 ( -9.620401e-01 -2.046813e-01 -1.470874e-01 ); e2 ( -1.322502e-01 -8.790207e-02 9.873110e-01 );}

zone64{e1 ( -9.300608e-01 -3.028053e-01 -1.535217e-01 ); e2 ( -1.248957e-01 -1.159685e-01 9.853692e-01 );}

zone65{e1 ( -8.925507e-01 -3.703715e-01 -1.860565e-01 ); e2 ( -1.404628e-01 -1.529073e-01 9.782073e-01 );}

zone66{e1 ( -8.577841e-01 -4.159801e-01 -2.154987e-01 ); e2 ( -1.533299e-01 -1.865439e-01 9.704078e-01 );}

zone67{e1 ( -8.192618e-01 -4.556736e-01 -2.495270e-01 ); e2 ( -1.657556e-01 -2.274530e-01 9.595781e-01 );}

zone68{e1 ( -7.830978e-01 -4.685218e-01 -3.023407e-01 ); e2 ( -1.834834e-01 -2.978553e-01 9.368116e-01 );}

zone69{e1 ( -6.713533e-01 -5.180591e-01 -4.285400e-01 ); e2 ( -2.465010e-01 -4.078079e-01 8.791644e-01 );}

zone70{e1 ( -6.347031e-01 -5.621205e-01 -4.068176e-01 ); e2 ( -1.848622e-01 -4.306064e-01 8.834048e-01 );}

zone71{e1 ( -7.810888e-01 -4.559962e-01 -8.377133e-02 ); e2 ( 1.030654e-01 -3.477458e-01 9.319069e-01 );}

zone72{e1 ( -6.654164e-01 5.921908e-03 5.240208e-01 ); e2 ( 6.052555e-01 -1.987632e-01 7.708171e-01 );}

zone73{e1 ( 3.145886e-01 5.760167e-01 6.096409e-01 ); e2 ( 8.651459e-01 -5.008064e-01 2.674943e-02 );}

zone74{e1 ( 5.545672e-01 8.298343e-01 6.044836e-02 ); e2 ( 8.308688e-01 -5.562888e-01 1.413597e-02 );}

zone75{e1 ( 5.839121e-01 8.116120e-01 -1.823661e-02 ); e2 ( 8.117780e-01 -5.839564e-01 3.368331e-03 );}

zone76{e1 ( 6.091718e-01 7.875197e-01 -9.333882e-02 ); e2 ( 7.907627e-01 -6.121121e-01 -3.638235e-03 );}

zone77{e1 ( 5.015814e-01 6.940471e-01 -4.118806e-01 ); e2 ( 8.047569e-01 -5.932778e-01 -1.969362e-02 );}

zone78{e1 ( -2.250861e-01 3.489016e-01 -7.583696e-01 ); e2 ( 8.773794e-01 -2.803345e-01 -3.893814e-01 );}

zone79{e1 ( -7.608398e-01 -1.425248e-01 -4.032363e-01 ); e2 ( 4.883627e-01 -2.122926e-01 -8.464241e-01 );}

zone80{e1 ( -7.907105e-01 -4.205617e-01 1.525694e-01 ); e2 ( 1.669986e-03 -3.438011e-01 -9.390410e-01 );}

zone81{e1 ( -6.616571e-01 -4.591606e-01 4.687777e-01 ); e2 ( -2.903082e-01 -4.460254e-01 -8.466301e-01 );}

zone82{e1 ( -6.080068e-01 -4.200256e-01 5.813340e-01 ); e2 ( -4.139772e-01 -4.752711e-01 -7.763635e-01 );}

zone83{e1 ( -6.543008e-01 -4.149321e-01 5.350809e-01 ); e2 ( -3.978099e-01 -4.227486e-01 -8.142671e-01 );}

zone84{e1 ( -7.111702e-01 -4.153169e-01 4.765526e-01 ); e2 ( -3.761157e-01 -3.434239e-01 -8.605795e-01 );}

zone85{e1 ( -7.873307e-01 -3.963960e-01 3.936862e-01 ); e2 ( -3.258500e-01 -2.565247e-01 -9.099543e-01 );}

zone86{e1 ( -8.547485e-01 -3.672870e-01 3.032241e-01 ); e2 ( -2.599183e-01 -1.785742e-01 -9.489751e-01 );}

zone87{e1 ( -9.025673e-01 -3.351156e-01 2.229471e-01 ); e2 ( -1.981039e-01 -1.141133e-01 -9.735158e-01 );}

zone88{e1 ( -9.430455e-01 -2.739471e-01 1.552723e-01 ); e2 ( -1.440064e-01 -6.398470e-02 -9.875060e-01 );}

zone89{e1 ( -9.751610e-01 -1.721722e-01 1.209805e-01 ); e2 ( -1.171022e-01 -3.417677e-02 -9.925316e-01 );}

zone90{e1 ( -9.899842e-01 -6.496905e-02 1.205963e-01 ); e2 ( -1.198485e-01 -1.636912e-02 -9.926572e-01 );}

zone91{e1 ( -9.933576e-01 2.672352e-02 1.119170e-01 ); e2 ( -1.119758e-01 -6.741215e-04 -9.937107e-01 );}

zone92{e1 ( -9.917391e-01 9.356204e-02 8.016837e-02 ); e2 ( -7.963037e-02 1.002598e-02 -9.967740e-01 );}

zone93{e1 ( -9.824448e-01 1.643534e-01 5.331002e-02 ); e2 ( -5.070642e-02 2.077537e-02 -9.984975e-01 );}

zone94{e1 ( -9.603309e-01 2.570799e-01 2.283549e-02 ); e2 ( -1.521527e-02 3.193686e-02 -9.993741e-01 );}

zone95{e1 ( -9.342270e-01 3.266076e-01 3.807981e-02 ); e2 ( -2.232282e-02 5.255216e-02 -9.983687e-01 );}

zone96{e1 ( -9.167750e-01 3.506670e-01 8.801983e-02 ); e2 ( -6.154107e-02 8.865191e-02 -9.941597e-01 );}

zone97{e1 ( -8.853886e-01 3.846810e-01 1.612247e-01 ); e2 ( -1.135975e-01 1.501606e-01 -9.821138e-01 );}

zone98{e1 ( -7.945594e-01 4.521049e-01 3.216703e-01 ); e2 ( -2.273858e-01 2.667373e-01 -9.365612e-01 );}

zone99{e1 ( -6.808488e-01 5.276376e-01 4.283838e-01 ); e2 ( -2.896100e-01 3.496777e-01 -8.909835e-01 );}

zone100{e1 ( -6.744448e-01 5.451710e-01 3.914777e-01 ); e2 ( -2.296209e-01 3.640846e-01 -9.026165e-01 );}

zone101{e1 ( -8.059277e-01 4.375890e-01 1.112176e-01 ); e2 ( 3.287941e-02 3.026531e-01 -9.525335e-01 );}

zone102{e1 ( -7.385400e-01 1.227751e-02 -4.059625e-01 ); e2 ( 4.769796e-01 1.683121e-01 -8.626480e-01 );}

zone103{e1 ( 2.939322e-01 -5.168441e-01 -6.297816e-01 ); e2 ( 8.546528e-01 5.185156e-01 -2.664656e-02 );}

zone104{e1 ( 5.599241e-01 -8.238026e-01 -8.738427e-02 ); e2 ( 8.259573e-01 5.634105e-01 -1.905389e-02 );}

zone105{e1 ( 5.861421e-01 -8.101669e-01 8.183443e-03 ); e2 ( 8.102064e-01 5.860924e-01 -7.830179e-03 );}

zone106{e1 ( 6.073122e-01 -7.913977e-01 6.959395e-02 ); e2 ( 7.932806e-01 6.088552e-01 1.106941e-03 );}

zone107{e1 ( 4.576245e-01 -6.943756e-01 4.494200e-01 ); e2 ( 8.276866e-01 5.606980e-01 2.350847e-02 );}

zone108{e1 ( -3.654289e-01 -2.082062e-01 7.493260e-01 ); e2 ( 8.416244e-01 2.485087e-01 4.794912e-01 );}

zone109{e1 ( -7.904154e-01 3.148261e-01 2.245999e-01 ); e2 ( 3.607017e-01 2.683455e-01 8.932441e-01 );}

zone110{e1 ( -6.818889e-01 5.516173e-01 -2.876777e-01 ); e2 ( -6.490833e-02 3.971818e-01 9.154417e-01 );}

zone111{e1 ( -6.183997e-01 5.717355e-01 -4.211382e-01 ); e2 ( -2.085371e-01 4.237231e-01 8.814596e-01 );}

zone112{e1 ( -7.218657e-01 4.956537e-01 -3.677351e-01 ); e2 ( -2.111605e-01 3.651545e-01 9.066826e-01 );}

zone113{e1 ( -8.176650e-01 4.447894e-01 -2.463777e-01 ); e2 ( -1.507242e-01 2.523700e-01 9.558198e-01 );}

zone114{e1 ( -8.532328e-01 4.123809e-01 -2.079661e-01 ); e2 ( -1.391013e-01 2.011838e-01 9.696267e-01 );}

zone115{e1 ( -8.749397e-01 3.764405e-01 -2.144530e-01 ); e2 ( -1.573189e-01 1.867914e-01 9.697215e-01 );}

zone116{e1 ( -8.946431e-01 3.372429e-01 -2.308771e-01 ); e2 ( -1.871376e-01 1.663549e-01 9.681454e-01 );}

zone117{e1 ( -9.116114e-01 3.017396e-01 -2.412723e-01 ); e2 ( -2.112420e-01 1.357836e-01 9.679564e-01 );}

zone118{e1 ( -9.453904e-01 2.162704e-01 -2.210609e-01 ); e2 ( -2.056975e-01 9.627160e-02 9.738687e-01 );}

zone119{e1 ( -9.803315e-01 1.008892e-01 -1.554775e-01 ); e2 ( -1.509242e-01 5.458662e-02 9.870371e-01 );}

zone120{e1 ( -9.942074e-01 1.288286e-02 -1.067033e-01 ); e2 ( -1.067664e-01 -4.257069e-03 9.942750e-01 );}

zone121{e1 ( -9.905875e-01 -5.136151e-02 -1.216747e-01 ); e2 ( -1.202501e-01 -3.141919e-02 9.922463e-01 );}

zone122{e1 ( -9.811078e-01 -1.408301e-01 -1.109721e-01 ); e2 ( -1.039278e-01 -5.834956e-02 9.928718e-01 );}

zone123{e1 ( -9.589844e-01 -2.073270e-01 -1.611824e-01 ); e2 ( -1.456426e-01 -9.213664e-02 9.850376e-01 );}

zone124{e1 ( -9.252665e-01 -2.789998e-01 -2.135271e-01 ); e2 ( -1.847107e-01 -1.327067e-01 9.737920e-01 );}

zone125{e1 ( -8.730833e-01 -3.642877e-01 -2.682960e-01 ); e2 ( -2.158196e-01 -1.883783e-01 9.580895e-01 );}

zone126{e1 ( -7.880687e-01 -4.387896e-01 -3.688050e-01 ); e2 ( -2.745655e-01 -2.800481e-01 9.198842e-01 );}

zone127{e1 ( -6.952603e-01 -4.925476e-01 -4.552807e-01 ); e2 ( -3.188310e-01 -3.602867e-01 8.766643e-01 );}

zone128{e1 ( -6.256652e-01 -5.760370e-01 -4.485432e-01 ); e2 ( -2.862015e-01 -3.755452e-01 8.815069e-01 );}

zone129{e1 ( -7.040033e-01 -5.523684e-01 -3.129061e-01 ); e2 ( -1.450316e-01 -3.412544e-01 9.287149e-01 );}

zone130{e1 ( -8.430977e-01 -3.379668e-01 1.654058e-01 ); e2 ( 2.700583e-01 -2.142808e-01 9.386971e-01 );}

zone131{e1 ( -6.386582e-01 8.095735e-03 6.457662e-01 ); e2 ( 7.013939e-01 -1.554232e-01 6.956222e-01 );}

zone132{e1 ( -1.192792e-01 4.465672e-01 7.561580e-01 ); e2 ( 9.076964e-01 -2.826807e-01 3.101271e-01 );}

zone133{e1 ( 4.834415e-01 6.488484e-01 4.676064e-01 ); e2 ( 8.175850e-01 -5.737016e-01 -4.920694e-02 );}

zone134{e1 ( 5.237919e-01 8.517824e-01 1.004379e-02 ); e2 ( 8.512751e-01 -5.229766e-01 -4.273281e-02 );}

zone135{e1 ( 5.394697e-01 8.410291e-01 -4.023461e-02 ); e2 ( 8.416479e-01 -5.400176e-01 -3.144087e-03 );}

zone136{e1 ( 5.793771e-01 8.058444e-01 -1.221017e-01 ); e2 ( 8.142231e-01 -5.790246e-01 4.208645e-02 );}

zone137{e1 ( 6.138100e-01 6.816298e-01 -3.017393e-01 ); e2 ( 7.537704e-01 -6.549260e-01 5.387124e-02 );}

zone138{e1 ( 3.092900e-01 5.915836e-01 -5.918739e-01 ); e2 ( 8.699110e-01 -4.918193e-01 -3.699648e-02 );}

zone139{e1 ( -1.723523e-01 3.918579e-01 -7.881949e-01 ); e2 ( 9.129896e-01 -2.488047e-01 -3.233360e-01 );}

zone140{e1 ( -6.408193e-01 4.706991e-02 -6.431016e-01 ); e2 ( 6.997388e-01 -1.124816e-01 -7.054881e-01 );}

zone141{e1 ( -8.449035e-01 -2.711646e-01 -2.786690e-01 ); e2 ( 3.441169e-01 -1.145008e-01 -9.319190e-01 );}

zone142{e1 ( -8.159177e-01 -4.860040e-01 4.499969e-02 ); e2 ( 4.176949e-02 -1.614188e-01 -9.860017e-01 );}

zone143{e1 ( -7.724088e-01 -5.338379e-01 2.082620e-01 ); e2 ( -1.215564e-01 -2.031525e-01 -9.715725e-01 );}

zone144{e1 ( -7.981082e-01 -4.764009e-01 2.617550e-01 ); e2 ( -1.871692e-01 -2.132944e-01 -9.588916e-01 );}

zone145{e1 ( -8.403049e-01 -4.217207e-01 2.479942e-01 ); e2 ( -1.924396e-01 -1.834424e-01 -9.640103e-01 );}

zone146{e1 ( -8.962832e-01 -3.522871e-01 1.877575e-01 ); e2 ( -1.584592e-01 -1.192344e-01 -9.801397e-01 );}

zone147{e1 ( -9.314365e-01 -2.797745e-01 1.782540e-01 ); e2 ( -1.649537e-01 -7.730507e-02 -9.832671e-01 );}

zone148{e1 ( -9.476755e-01 -2.052622e-01 2.195176e-01 ); e2 ( -2.127908e-01 -6.051944e-02 -9.752218e-01 );}

zone149{e1 ( -9.551860e-01 -1.258194e-01 2.588524e-01 ); e2 ( -2.557851e-01 -4.490254e-02 -9.656903e-01 );}

zone150{e1 ( -9.638294e-01 -4.711163e-02 2.602416e-01 ); e2 ( -2.596650e-01 -2.089076e-02 -9.654728e-01 );}

zone151{e1 ( -9.630358e-01 3.151603e-02 2.675178e-01 ); e2 ( -2.675218e-01 4.208504e-03 -9.635426e-01 );}

zone152{e1 ( -9.488088e-01 1.149691e-01 2.918264e-01 ); e2 ( -2.899141e-01 3.508191e-02 -9.564095e-01 );}

zone153{e1 ( -9.229294e-01 1.917950e-01 3.259148e-01 ); e2 ( -3.185370e-01 7.315308e-02 -9.450835e-01 );}

zone154{e1 ( -8.920172e-01 2.531134e-01 3.586598e-01 ); e2 ( -3.406875e-01 1.205800e-01 -9.324122e-01 );}

zone155{e1 ( -8.502115e-01 3.218470e-01 3.904967e-01 ); e2 ( -3.533341e-01 1.803572e-01 -9.179468e-01 );}

zone156{e1 ( -7.723462e-01 4.007061e-01 4.578365e-01 ); e2 ( -3.911148e-01 2.561521e-01 -8.839770e-01 );}

zone157{e1 ( -6.813463e-01 4.900553e-01 5.026218e-01 ); e2 ( -4.098412e-01 3.100310e-01 -8.578525e-01 );}

zone158{e1 ( -6.814359e-01 5.254420e-01 4.503640e-01 ); e2 ( -3.394457e-01 3.184083e-01 -8.850948e-01 );}

zone159{e1 ( -8.070801e-01 4.562890e-01 2.292640e-01 ); e2 ( -1.165687e-01 2.735433e-01 -9.547700e-01 );}

zone160{e1 ( -8.664529e-01 2.717860e-01 -2.237006e-01 ); e2 ( 2.948040e-01 1.651798e-01 -9.411728e-01 );}

zone161{e1 ( -6.719548e-01 -1.944354e-02 -6.325650e-01 ); e2 ( 6.783264e-01 1.232247e-01 -7.243542e-01 );}

zone162{e1 ( -2.324542e-01 -4.212556e-01 -7.401551e-01 ); e2 ( 8.869591e-01 2.220744e-01 -4.049525e-01 );}

zone163{e1 ( 4.365507e-01 -6.011920e-01 -5.277871e-01 ); e2 ( 8.252789e-01 5.632314e-01 4.105106e-02 );}

zone164{e1 ( 5.305254e-01 -8.471446e-01 -2.978376e-02 ); e2 ( 8.475393e-01 5.295050e-01 3.607756e-02 );}

zone165{e1 ( 5.349324e-01 -8.447942e-01 1.225769e-02 ); e2 ( 8.448766e-01 5.349579e-01 -1.901330e-03 );}

zone166{e1 ( 5.701213e-01 -8.176698e-01 7.958443e-02 ); e2 ( 8.215227e-01 5.682430e-01 -4.690773e-02 );}

zone167{e1 ( 6.099894e-01 -6.888276e-01 2.929065e-01 ); e2 ( 7.597027e-01 6.475675e-01 -5.922945e-02 );}

zone168{e1 ( 2.148622e-01 -5.613939e-01 6.563392e-01 ); e2 ( 8.931748e-01 4.415495e-01 8.528145e-02 );}

zone169{e1 ( -3.642005e-01 -2.475738e-01 7.768656e-01 ); e2 ( 8.588504e-01 2.069130e-01 4.685755e-01 );}

zone170{e1 ( -7.754050e-01 1.745461e-01 4.356748e-01 ); e2 ( 5.113606e-01 1.680915e-01 8.427666e-01 );}

zone171{e1 ( -7.969519e-01 4.606343e-01 -1.201133e-01 ); e2 ( 3.095398e-02 3.020045e-01 9.528038e-01 );}

zone172{e1 ( -6.255005e-01 5.763582e-01 -4.296626e-01 ); e2 ( -2.530712e-01 3.865065e-01 8.868865e-01 );}

zone173{e1 ( -6.207592e-01 5.602736e-01 -4.721001e-01 ); e2 ( -3.115389e-01 3.863498e-01 8.681459e-01 );}

zone174{e1 ( -7.501491e-01 4.735849e-01 -3.821787e-01 ); e2 ( -2.642677e-01 3.165827e-01 9.110093e-01 );}

zone175{e1 ( -8.686827e-01 3.959282e-01 -2.065896e-01 ); e2 ( -1.456865e-01 1.872477e-01 9.714493e-01 );}

zone176{e1 ( -9.259528e-01 3.084681e-01 -1.283813e-01 ); e2 ( -9.679130e-02 1.206377e-01 9.879666e-01 );}

zone177{e1 ( -9.615776e-01 2.207865e-01 -8.579967e-02 ); e2 ( -6.916115e-02 8.505677e-02 9.939729e-01 );}

zone178{e1 ( -9.700232e-01 1.865022e-01 -1.148525e-01 ); e2 ( -1.031952e-01 7.410447e-02 9.918968e-01 );}

zone179{e1 ( -9.821153e-01 1.315293e-01 -1.156889e-01 ); e2 ( -1.100793e-01 5.111905e-02 9.926074e-01 );}

zone180{e1 ( -9.247882e-01 -1.203088e-02 -3.802900e-01 ); e2 ( -3.802187e-01 -7.912000e-03 9.248628e-01 );}

zone181{e1 ( -9.053635e-01 -8.026282e-02 -4.153517e-01 ); e2 ( -4.123247e-01 -5.493643e-02 9.093791e-01 );}

zone182{e1 ( -8.788576e-01 -1.573065e-01 -4.446367e-01 ); e2 ( -4.334032e-01 -1.076724e-01 8.947448e-01 );}

zone183{e1 ( -7.959176e-01 -2.508978e-01 -5.400277e-01 ); e2 ( -5.096897e-01 -1.894790e-01 8.392343e-01 );}

zone184{e1 ( -6.777125e-01 -3.288206e-01 -6.420866e-01 ); e2 ( -5.826662e-01 -2.851753e-01 7.610355e-01 );}

zone185{e1 ( -5.916951e-01 -4.066023e-01 -6.747312e-01 ); e2 ( -5.883222e-01 -3.519572e-01 7.280132e-01 );}

zone186{e1 ( -5.907481e-01 -4.709961e-01 -6.232607e-01 ); e2 ( -5.124624e-01 -3.777232e-01 7.711728e-01 );}

zone187{e1 ( -7.112557e-01 -4.734619e-01 -4.548634e-01 ); e2 ( -3.201374e-01 -3.606874e-01 8.760232e-01 );}

zone188{e1 ( -8.588581e-01 -3.848952e-01 -9.164835e-02 ); e2 ( 2.930966e-02 -2.929608e-01 9.556751e-01 );}

zone189{e1 ( -7.937114e-01 -1.370212e-01 4.776509e-01 ); e2 ( 5.282779e-01 -1.419200e-01 8.371267e-01 );}

zone190{e1 ( -4.655997e-01 1.813760e-01 7.810735e-01 ); e2 ( 8.334077e-01 -1.505535e-01 5.317567e-01 );}

zone191{e1 ( -9.108505e-02 4.036975e-01 8.222403e-01 ); e2 ( 9.349933e-01 -2.662547e-01 2.342989e-01 );}

zone192{e1 ( 2.321208e-01 5.926046e-01 6.490503e-01 ); e2 ( 9.117500e-01 -4.081006e-01 4.653832e-02 );}

zone193{e1 ( 5.551729e-01 6.502570e-01 3.861105e-01 ); e2 ( 7.777135e-01 -6.252179e-01 -6.530140e-02 );}

zone194{e1 ( 5.126511e-01 8.521744e-01 1.037967e-01 ); e2 ( 8.583519e-01 -5.115066e-01 -3.991252e-02 );}

zone195{e1 ( 4.670307e-01 8.805848e-01 -8.028639e-02 ); e2 ( 8.829256e-01 -4.693611e-01 -1.193610e-02 );}

zone196{e1 ( 5.284453e-01 8.170010e-01 -2.298895e-01 ); e2 ( 8.424341e-01 -5.382872e-01 2.348775e-02 );}

zone197{e1 ( 5.866313e-01 7.101089e-01 -2.974492e-01 ); e2 ( 7.808275e-01 -6.224020e-01 5.407618e-02 );}

zone198{e1 ( 4.765718e-01 6.369910e-01 -4.337317e-01 ); e2 ( 8.192988e-01 -5.698610e-01 6.330788e-02 );}

zone199{e1 ( 2.742785e-01 5.791744e-01 -6.455195e-01 ); e2 ( 8.993967e-01 -4.370201e-01 -9.953912e-03 );}

zone200{e1 ( -4.206135e-02 4.605632e-01 -7.930449e-01 ); e2 ( 9.428458e-01 -2.640062e-01 -2.033285e-01 );}

zone201{e1 ( -4.150338e-01 2.511839e-01 -7.891694e-01 ); e2 ( 8.590869e-01 -1.331891e-01 -4.941966e-01 );}

zone202{e1 ( -7.386679e-01 -2.920632e-02 -5.744867e-01 ); e2 ( 6.133889e-01 -9.761597e-02 -7.837252e-01 );}

zone203{e1 ( -8.945077e-01 -2.770971e-01 -1.371977e-01 ); e2 ( 2.030723e-01 -1.788981e-01 -9.626822e-01 );}

zone204{e1 ( -8.526278e-01 -3.929268e-01 2.223843e-01 ); e2 ( -1.425433e-01 -2.348784e-01 -9.615163e-01 );}

zone205{e1 ( -7.470002e-01 -4.311456e-01 4.600631e-01 ); e2 ( -3.941213e-01 -2.583161e-01 -8.820097e-01 );}

zone206{e1 ( -6.743424e-01 -3.987786e-01 5.981549e-01 ); e2 ( -5.519889e-01 -2.566227e-01 -7.933808e-01 );}

zone207{e1 ( -6.541426e-01 -3.099234e-01 6.762234e-01 ); e2 ( -6.440239e-01 -2.315564e-01 -7.291192e-01 );}

zone208{e1 ( -6.581593e-01 -2.186068e-01 7.129531e-01 ); e2 ( -6.935015e-01 -1.839002e-01 -6.965891e-01 );}

zone209{e1 ( -6.767629e-01 -1.445992e-01 7.186086e-01 ); e2 ( -7.105858e-01 -1.198656e-01 -6.933254e-01 );}

zone210{e1 ( -6.982908e-01 -6.190299e-02 7.123549e-01 ); e2 ( -7.111308e-01 -4.901742e-02 -7.013489e-01 );}

zone211{e1 ( -7.034367e-01 4.230711e-02 7.094948e-01 ); e2 ( -7.092118e-01 2.401230e-02 -7.045864e-01 );}

zone212{e1 ( -6.916330e-01 1.214139e-01 7.110294e-01 ); e2 ( -7.052025e-01 9.639101e-02 -7.024231e-01 );}

zone213{e1 ( -6.830448e-01 1.942467e-01 7.005295e-01 ); e2 ( -6.839461e-01 1.610566e-01 -7.115325e-01 );}

zone214{e1 ( -6.751028e-01 2.860760e-01 6.721608e-01 ); e2 ( -6.430905e-01 2.116185e-01 -7.359702e-01 );}

zone215{e1 ( -6.820964e-01 3.765694e-01 6.122514e-01 ); e2 ( -5.687757e-01 2.458698e-01 -7.848836e-01 );}

zone216{e1 ( -7.477388e-01 4.150315e-01 4.871817e-01 ); e2 ( -4.223535e-01 2.587915e-01 -8.687027e-01 );}

zone217{e1 ( -8.624440e-01 3.798253e-01 2.379033e-01 ); e2 ( -1.596720e-01 2.375839e-01 -9.581538e-01 );}

zone218{e1 ( -9.052056e-01 2.569436e-01 -1.870569e-01 ); e2 ( 2.393991e-01 1.444243e-01 -9.601196e-01 );}

zone219{e1 ( -7.560985e-01 3.053002e-02 -5.728831e-01 ); e2 ( 6.038978e-01 8.524882e-02 -7.924898e-01 );}

zone220{e1 ( -4.623699e-01 -2.034742e-01 -7.934643e-01 ); e2 ( 8.443963e-01 1.185234e-01 -5.224434e-01 );}

zone221{e1 ( -1.663406e-01 -3.652923e-01 -8.404987e-01 ); e2 ( 9.336556e-01 2.218476e-01 -2.811953e-01 );}

zone222{e1 ( 1.295985e-01 -5.715712e-01 -6.960102e-01 ); e2 ( 9.337236e-01 3.417075e-01 -1.067527e-01 );}

zone223{e1 ( 5.141990e-01 -6.127388e-01 -4.476671e-01 ); e2 ( 7.861848e-01 6.149401e-01 6.133624e-02 );}

zone224{e1 ( 5.157666e-01 -8.476767e-01 -1.235385e-01 ); e2 ( 8.561577e-01 5.152372e-01 3.904705e-02 );}

zone225{e1 ( 4.488840e-01 -8.920823e-01 5.173703e-02 ); e2 ( 8.931342e-01 4.497524e-01 5.832674e-03 );}

zone226{e1 ( 5.248191e-01 -8.261878e-01 2.037619e-01 ); e2 ( 8.471371e-01 5.304654e-01 -3.106729e-02 );}

zone227{e1 ( 5.993536e-01 -7.088637e-01 2.715048e-01 ); e2 ( 7.737636e-01 6.304163e-01 -6.216967e-02 );}

zone228{e1 ( 4.574571e-01 -6.348796e-01 4.546945e-01 ); e2 ( 8.303385e-01 5.537828e-01 -6.214998e-02 );}

zone229{e1 ( 1.841704e-01 -5.401296e-01 7.082952e-01 ); e2 ( 9.187226e-01 3.904878e-01 5.889105e-02 );}

zone230{e1 ( -2.121495e-01 -3.478985e-01 8.211670e-01 ); e2 ( 9.192311e-01 2.161687e-01 3.290673e-01 );}

zone231{e1 ( -6.362994e-01 -3.966713e-02 6.693462e-01 ); e2 ( 7.152100e-01 1.263792e-01 6.873886e-01 );}

zone232{e1 ( -8.594114e-01 2.800216e-01 2.439849e-01 ); e2 ( 3.228675e-01 1.815863e-01 9.288611e-01 );}

zone233{e1 ( -7.854742e-01 4.603424e-01 -2.843233e-01 ); e2 ( -1.469895e-01 3.259891e-01 9.338764e-01 );}

zone234{e1 ( -6.132843e-01 5.204283e-01 -5.454590e-01 ); e2 ( -4.181006e-01 3.746485e-01 8.275448e-01 );}

zone235{e1 ( -5.798672e-01 4.724928e-01 -6.324104e-01 ); e2 ( -5.299485e-01 3.705684e-01 7.627802e-01 );}

zone236{e1 ( -6.667678e-01 3.714194e-01 -6.207655e-01 ); e2 ( -5.438536e-01 3.201521e-01 7.757099e-01 );}

zone237{e1 ( -7.795654e-01 2.933939e-01 -5.332099e-01 ); e2 ( -4.877523e-01 2.330046e-01 8.413124e-01 );}

zone238{e1 ( -8.900299e-01 1.944019e-01 -3.975578e-01 ); e2 ( -3.792549e-01 1.355105e-01 9.153156e-01 );}

zone239{e1 ( -9.146588e-01 1.038331e-01 -3.842270e-01 ); e2 ( -3.781759e-01 8.111703e-02 9.221730e-01 );}

zone240{e1 ( -6.781318e-01 -1.247434e-02 -7.348333e-01 ); e2 ( -7.346655e-01 -1.583951e-02 6.782446e-01 );}

zone241{e1 ( -6.782995e-01 -7.933027e-02 -7.296131e-01 ); e2 ( -7.247424e-01 -8.816378e-02 6.833561e-01 );}

zone242{e1 ( -6.683567e-01 -2.070937e-01 -7.112480e-01 ); e2 ( -6.974043e-01 -1.535101e-01 7.000442e-01 );}

zone243{e1 ( -6.724889e-01 -3.274759e-01 -6.560849e-01 ); e2 ( -6.303753e-01 -2.053557e-01 7.486361e-01 );}

zone244{e1 ( -7.463081e-01 -3.683298e-01 -5.354136e-01 ); e2 ( -4.874591e-01 -2.347917e-01 8.409854e-01 );}

zone245{e1 ( -8.584554e-01 -3.512006e-01 -3.167215e-01 ); e2 ( -2.487610e-01 -2.385192e-01 9.387367e-01 );}

zone246{e1 ( -9.266579e-01 -2.737747e-01 6.173647e-02 ); e2 ( 1.189501e-01 -1.825323e-01 9.759779e-01 );}

zone247{e1 ( -8.272995e-01 -1.068631e-01 4.739743e-01 ); e2 ( 5.047892e-01 -1.108230e-01 8.560993e-01 );}

zone248{e1 ( -5.485585e-01 1.178570e-01 7.706433e-01 ); e2 ( 8.041086e-01 -9.479123e-02 5.868764e-01 );}

zone249{e1 ( -2.063467e-01 3.134907e-01 8.689759e-01 ); e2 ( 9.434400e-01 -1.692511e-01 2.850876e-01 );}

zone250{e1 ( 2.901426e-02 4.232094e-01 8.348077e-01 ); e2 ( 9.553456e-01 -2.756220e-01 1.065238e-01 );}

zone251{e1 ( 1.978159e-01 5.048782e-01 7.520459e-01 ); e2 ( 9.264448e-01 -3.763241e-01 8.951577e-03 );}

zone252{e1 ( 3.732404e-01 6.269620e-01 5.561427e-01 ); e2 ( 8.786868e-01 -4.742063e-01 -5.511603e-02 );}

zone253{e1 ( 5.075724e-01 6.890498e-01 4.012875e-01 ); e2 ( 8.181271e-01 -5.727384e-01 -5.136898e-02 );}

zone254{e1 ( 4.822934e-01 8.561263e-01 1.846398e-01 ); e2 ( 8.731363e-01 -4.869380e-01 -2.289909e-02 );}

zone255{e1 ( 4.438136e-01 8.933726e-01 -7.009623e-02 ); e2 ( 8.949769e-01 -4.458382e-01 -1.563785e-02 );}

zone256{e1 ( 4.451526e-01 8.450432e-01 -2.956554e-01 ); e2 ( 8.840710e-01 -4.673297e-01 -4.623247e-03 );}

zone257{e1 ( 4.936641e-01 7.426900e-01 -3.833471e-01 ); e2 ( 8.399881e-01 -5.416395e-01 3.235170e-02 );}

zone258{e1 ( 4.812635e-01 6.557938e-01 -4.143161e-01 ); e2 ( 8.267215e-01 -5.571082e-01 7.849804e-02 );}

zone259{e1 ( 4.240578e-01 6.103394e-01 -5.384748e-01 ); e2 ( 8.540686e-01 -5.118902e-01 9.238663e-02 );}

zone260{e1 ( 2.992813e-01 5.524198e-01 -6.784761e-01 ); e2 ( 9.055555e-01 -4.203549e-01 5.719247e-02 );}

zone261{e1 ( 1.183366e-01 4.779401e-01 -7.945918e-01 ); e2 ( 9.521971e-01 -3.028106e-01 -4.032916e-02 );}

zone262{e1 ( -1.176498e-01 3.731375e-01 -8.609080e-01 ); e2 ( 9.599278e-01 -1.843459e-01 -2.110811e-01 );}

zone263{e1 ( -4.171219e-01 2.192796e-01 -8.296973e-01 ); e2 ( 8.791757e-01 -9.463130e-02 -4.670064e-01 );}

zone264{e1 ( -6.879412e-01 5.347947e-02 -6.679764e-01 ); e2 ( 6.917273e-01 -7.416845e-02 -7.183400e-01 );}

zone265{e1 ( -8.719073e-01 -8.604634e-02 -4.095606e-01 ); e2 ( 4.312194e-01 -1.032966e-01 -8.963145e-01 );}

zone266{e1 ( -9.530825e-01 -1.799748e-01 -8.669254e-02 ); e2 ( 1.192206e-01 -1.592883e-01 -9.800070e-01 );}

zone267{e1 ( -9.425700e-01 -2.084038e-01 1.892814e-01 ); e2 ( -1.566265e-01 -1.745274e-01 -9.721154e-01 );}

zone268{e1 ( -9.007755e-01 -1.876239e-01 3.697673e-01 ); e2 ( -3.496020e-01 -1.455792e-01 -9.255189e-01 );}

zone269{e1 ( -8.676153e-01 -1.355574e-01 4.714996e-01 ); e2 ( -4.639502e-01 -9.428402e-02 -8.808296e-01 );}

zone270{e1 ( -8.439155e-01 -5.871986e-02 5.318726e-01 ); e2 ( -5.308898e-01 -3.824503e-02 -8.465775e-01 );}

zone271{e1 ( -8.481816e-01 3.089609e-02 5.288028e-01 ); e2 ( -5.283795e-01 2.123962e-02 -8.487426e-01 );}

zone272{e1 ( -8.775953e-01 1.117624e-01 4.643697e-01 ); e2 ( -4.589141e-01 7.492296e-02 -8.853160e-01 );}

zone273{e1 ( -9.120875e-01 1.698735e-01 3.632001e-01 ); e2 ( -3.471916e-01 1.234653e-01 -9.296313e-01 );}

zone274{e1 ( -9.539448e-01 1.967002e-01 1.822998e-01 ); e2 ( -1.550930e-01 1.524494e-01 -9.760663e-01 );}

zone275{e1 ( -9.628221e-01 1.740494e-01 -9.360312e-02 ); e2 ( 1.209623e-01 1.406929e-01 -9.826361e-01 );}

zone276{e1 ( -8.800183e-01 8.669637e-02 -4.150245e-01 ); e2 ( 4.319149e-01 8.656168e-02 -8.977509e-01 );}

zone277{e1 ( -6.962904e-01 -4.457801e-02 -6.751026e-01 ); e2 ( 6.931858e-01 5.558917e-02 -7.186121e-01 );}
