FoamFile
{
	version	2.0;
	format	ascii;
	class	polyBoundaryMesh;
	location	"constant/polyMesh";
	object	boundary;
}
5
(
	inlet
	{
		type	patch;
		startFace	35096;
		nFaces	100;
	}
	outlet
	{
		type	patch;
		startFace	35196;
		nFaces	100;
	}
	boundaries
	{
		type	wall;
		startFace	35296;
		nFaces	808;
	}
	cube
	{
		type	wall;
		startFace	36104;
		nFaces	1120;
	}
	cube_slave
	{
		type	empty;
		startFace	37224;
		nFaces	1120;
	}
)