FoamFile
{
	version	2.0;
	format	ascii;
	class	dictionary;
	location	"system";
	object	blockMeshDict;
}
vertices	(
	(-0.505 -0.505 -0.505)
	(0.505 -0.505 -0.505)
	(0.505 0.505 -0.505)
	(-0.505 0.505 -0.505)
	(-0.505 -0.505 0.505)
	(0.505 -0.505 0.505)
	(0.505 0.505 0.505)
	(-0.505 0.505 0.505)
);
blocks	(
	hex	(0 1 2 3 4 5 6 7) (40 40 40) simpleGrading (1.0 1.0 1.0)
);
edges	();
boundary	(
	inlet
	{
		type	patch;
		faces	(
			(0 4 7 3)
		);
	}
	outlet
	{
		type	patch;
		faces	(
			(2 6 5 1)
		);
	}
	boundaries
	{
		type	wall;
		faces	(
			(1 5 4 0)
			(3 7 6 2)
			(0 3 2 1)
			(4 5 6 7)
		);
	}
);
