FoamFile
{
	version	2.0;
	format	ascii;
	class	dictionary;
	location	"system";
	object	topoSetDict;
}
actions	(
	{
		name	cube.stl;
		type	cellZoneSet;
		action	new;
		source	surfaceToCell;
		sourceInfo
		{
			file	"constant/triSurface/cube.stl";
			useSurfaceOrientation	true;
			outsidePoints	();
			includeInside	true;
			includeOutside	false;
			includeCut	false;
			nearDistance	-1.0;
			curvature	-100.0;
		}
	}
);
