FoamFile
{
	version	2.0;
	format	ascii;
	class	dictionary;
	location	"system";
	object	fvOptions;
}porosityInzone0
{
	active	true;
	type	explicitPorositySource;
	explicitPorositySourceCoeffs
	{
		type	DarcyForchheimer;
		DarcyForchheimerCoeffs
		{
			d	(0.0 0.0 0.0);
			f	(8.182827e+00 2.398415e+00 2.398415e+00);
			coordinateSystem
			{
				type	cartesian;
				origin	(0.0 0.0 0.0);
				coordinateRotation
				{
					type	axesRotation;
					e1	( -9.215632e-01 -4.829708e-02 -1.855825e-02 );
					e2	( 1.605124e-03 -3.852245e-01 9.228215e-01 );
				}
			}
			rho	rho;
			mu	mu;
		}
		selectionMode	cellZone;
		cellZone	zone0;
	}
}
porosityInzone1
{
	active	true;
	type	explicitPorositySource;
	explicitPorositySourceCoeffs
	{
		type	DarcyForchheimer;
		DarcyForchheimerCoeffs
		{
			d	(0.0 0.0 0.0);
			f	(8.182827e+00 2.398415e+00 2.398415e+00);
			coordinateSystem
			{
				type	cartesian;
				origin	(0.0 0.0 0.0);
				coordinateRotation
				{
					type	axesRotation;
					e1	( -9.144871e-01 -9.611646e-02 -2.298271e-02 );
					e2	( 1.815700e-02 -3.926296e-01 9.195175e-01 );
				}
			}
			rho	rho;
			mu	mu;
		}
		selectionMode	cellZone;
		cellZone	zone1;
	}
}
porosityInzone2
{
	active	true;
	type	explicitPorositySource;
	explicitPorositySourceCoeffs
	{
		type	DarcyForchheimer;
		DarcyForchheimerCoeffs
		{
			d	(0.0 0.0 0.0);
			f	(8.182827e+00 2.398415e+00 2.398415e+00);
			coordinateSystem
			{
				type	cartesian;
				origin	(0.0 0.0 0.0);
				coordinateRotation
				{
					type	axesRotation;
					e1	( -9.002657e-01 -1.913574e-01 -6.615954e-02 );
					e2	( 1.541536e-02 -3.907414e-01 9.203714e-01 );
				}
			}
			rho	rho;
			mu	mu;
		}
		selectionMode	cellZone;
		cellZone	zone2;
	}
}
porosityInzone3
{
	active	true;
	type	explicitPorositySource;
	explicitPorositySourceCoeffs
	{
		type	DarcyForchheimer;
		DarcyForchheimerCoeffs
		{
			d	(0.0 0.0 0.0);
			f	(8.182827e+00 2.398415e+00 2.398415e+00);
			coordinateSystem
			{
				type	cartesian;
				origin	(0.0 0.0 0.0);
				coordinateRotation
				{
					type	axesRotation;
					e1	( -8.705146e-01 -2.828473e-01 -1.359917e-01 );
					e2	( -1.218901e-02 -4.025736e-01 9.153064e-01 );
				}
			}
			rho	rho;
			mu	mu;
		}
		selectionMode	cellZone;
		cellZone	zone3;
	}
}
porosityInzone4
{
	active	true;
	type	explicitPorositySource;
	explicitPorositySourceCoeffs
	{
		type	DarcyForchheimer;
		DarcyForchheimerCoeffs
		{
			d	(0.0 0.0 0.0);
			f	(8.182827e+00 2.398415e+00 2.398415e+00);
			coordinateSystem
			{
				type	cartesian;
				origin	(0.0 0.0 0.0);
				coordinateRotation
				{
					type	axesRotation;
					e1	( -8.333671e-01 -3.710389e-01 -1.903825e-01 );
					e2	( -2.637984e-02 -4.088354e-01 9.122268e-01 );
				}
			}
			rho	rho;
			mu	mu;
		}
		selectionMode	cellZone;
		cellZone	zone4;
	}
}
porosityInzone5
{
	active	true;
	type	explicitPorositySource;
	explicitPorositySourceCoeffs
	{
		type	DarcyForchheimer;
		DarcyForchheimerCoeffs
		{
			d	(0.0 0.0 0.0);
			f	(8.182827e+00 2.398415e+00 2.398415e+00);
			coordinateSystem
			{
				type	cartesian;
				origin	(0.0 0.0 0.0);
				coordinateRotation
				{
					type	axesRotation;
					e1	( -7.934814e-01 -4.581167e-01 -2.043166e-01 );
					e2	( -4.626738e-03 -4.006342e-01 9.162264e-01 );
				}
			}
			rho	rho;
			mu	mu;
		}
		selectionMode	cellZone;
		cellZone	zone5;
	}
}
porosityInzone6
{
	active	true;
	type	explicitPorositySource;
	explicitPorositySourceCoeffs
	{
		type	DarcyForchheimer;
		DarcyForchheimerCoeffs
		{
			d	(0.0 0.0 0.0);
			f	(8.182827e+00 2.398415e+00 2.398415e+00);
			coordinateSystem
			{
				type	cartesian;
				origin	(0.0 0.0 0.0);
				coordinateRotation
				{
					type	axesRotation;
					e1	( -7.437227e-01 -5.403461e-01 -2.281415e-01 );
					e2	( 3.937627e-03 -3.935733e-01 9.192848e-01 );
				}
			}
			rho	rho;
			mu	mu;
		}
		selectionMode	cellZone;
		cellZone	zone6;
	}
}
porosityInzone7
{
	active	true;
	type	explicitPorositySource;
	explicitPorositySourceCoeffs
	{
		type	DarcyForchheimer;
		DarcyForchheimerCoeffs
		{
			d	(0.0 0.0 0.0);
			f	(8.182827e+00 2.398415e+00 2.398415e+00);
			coordinateSystem
			{
				type	cartesian;
				origin	(0.0 0.0 0.0);
				coordinateRotation
				{
					type	axesRotation;
					e1	( -6.847570e-01 -6.165580e-01 -2.569266e-01 );
					e2	( 4.095448e-03 -3.885359e-01 9.214245e-01 );
				}
			}
			rho	rho;
			mu	mu;
		}
		selectionMode	cellZone;
		cellZone	zone7;
	}
}
porosityInzone8
{
	active	true;
	type	explicitPorositySource;
	explicitPorositySourceCoeffs
	{
		type	DarcyForchheimer;
		DarcyForchheimerCoeffs
		{
			d	(0.0 0.0 0.0);
			f	(8.182827e+00 2.398415e+00 2.398415e+00);
			coordinateSystem
			{
				type	cartesian;
				origin	(0.0 0.0 0.0);
				coordinateRotation
				{
					type	axesRotation;
					e1	( -6.160562e-01 -6.841998e-01 -2.890404e-01 );
					e2	( 1.520290e-03 -3.903284e-01 9.206745e-01 );
				}
			}
			rho	rho;
			mu	mu;
		}
		selectionMode	cellZone;
		cellZone	zone8;
	}
}
porosityInzone9
{
	active	true;
	type	explicitPorositySource;
	explicitPorositySourceCoeffs
	{
		type	DarcyForchheimer;
		DarcyForchheimerCoeffs
		{
			d	(0.0 0.0 0.0);
			f	(8.182827e+00 2.398415e+00 2.398415e+00);
			coordinateSystem
			{
				type	cartesian;
				origin	(0.0 0.0 0.0);
				coordinateRotation
				{
					type	axesRotation;
					e1	( -5.392535e-01 -7.422188e-01 -3.220758e-01 );
					e2	( -2.993731e-04 -3.979082e-01 9.174252e-01 );
				}
			}
			rho	rho;
			mu	mu;
		}
		selectionMode	cellZone;
		cellZone	zone9;
	}
}
porosityInzone10
{
	active	true;
	type	explicitPorositySource;
	explicitPorositySourceCoeffs
	{
		type	DarcyForchheimer;
		DarcyForchheimerCoeffs
		{
			d	(0.0 0.0 0.0);
			f	(8.182827e+00 2.398415e+00 2.398415e+00);
			coordinateSystem
			{
				type	cartesian;
				origin	(0.0 0.0 0.0);
				coordinateRotation
				{
					type	axesRotation;
					e1	( -4.575270e-01 -7.924600e-01 -3.504213e-01 );
					e2	( -2.263721e-03 -4.033439e-01 9.150457e-01 );
				}
			}
			rho	rho;
			mu	mu;
		}
		selectionMode	cellZone;
		cellZone	zone10;
	}
}
porosityInzone11
{
	active	true;
	type	explicitPorositySource;
	explicitPorositySourceCoeffs
	{
		type	DarcyForchheimer;
		DarcyForchheimerCoeffs
		{
			d	(0.0 0.0 0.0);
			f	(8.182827e+00 2.398415e+00 2.398415e+00);
			coordinateSystem
			{
				type	cartesian;
				origin	(0.0 0.0 0.0);
				coordinateRotation
				{
					type	axesRotation;
					e1	( -3.725317e-01 -8.367198e-01 -3.673599e-01 );
					e2	( -1.642857e-03 -4.014129e-01 9.158957e-01 );
				}
			}
			rho	rho;
			mu	mu;
		}
		selectionMode	cellZone;
		cellZone	zone11;
	}
}
porosityInzone12
{
	active	true;
	type	explicitPorositySource;
	explicitPorositySourceCoeffs
	{
		type	DarcyForchheimer;
		DarcyForchheimerCoeffs
		{
			d	(0.0 0.0 0.0);
			f	(8.182827e+00 2.398415e+00 2.398415e+00);
			coordinateSystem
			{
				type	cartesian;
				origin	(0.0 0.0 0.0);
				coordinateRotation
				{
					type	axesRotation;
					e1	( -2.826436e-01 -8.698874e-01 -3.853369e-01 );
					e2	( -2.891596e-03 -4.042463e-01 9.146456e-01 );
				}
			}
			rho	rho;
			mu	mu;
		}
		selectionMode	cellZone;
		cellZone	zone12;
	}
}
porosityInzone13
{
	active	true;
	type	explicitPorositySource;
	explicitPorositySourceCoeffs
	{
		type	DarcyForchheimer;
		DarcyForchheimerCoeffs
		{
			d	(0.0 0.0 0.0);
			f	(8.182827e+00 2.398415e+00 2.398415e+00);
			coordinateSystem
			{
				type	cartesian;
				origin	(0.0 0.0 0.0);
				coordinateRotation
				{
					type	axesRotation;
					e1	( -1.897162e-01 -8.925444e-01 -4.009559e-01 );
					e2	( -3.859452e-03 -4.091119e-01 9.124761e-01 );
				}
			}
			rho	rho;
			mu	mu;
		}
		selectionMode	cellZone;
		cellZone	zone13;
	}
}
porosityInzone14
{
	active	true;
	type	explicitPorositySource;
	explicitPorositySourceCoeffs
	{
		type	DarcyForchheimer;
		DarcyForchheimerCoeffs
		{
			d	(0.0 0.0 0.0);
			f	(8.182827e+00 2.398415e+00 2.398415e+00);
			coordinateSystem
			{
				type	cartesian;
				origin	(0.0 0.0 0.0);
				coordinateRotation
				{
					type	axesRotation;
					e1	( -9.523557e-02 -9.061059e-01 -4.103087e-01 );
					e2	( -3.747039e-03 -4.121940e-01 9.110884e-01 );
				}
			}
			rho	rho;
			mu	mu;
		}
		selectionMode	cellZone;
		cellZone	zone14;
	}
}
porosityInzone15
{
	active	true;
	type	explicitPorositySource;
	explicitPorositySourceCoeffs
	{
		type	DarcyForchheimer;
		DarcyForchheimerCoeffs
		{
			d	(0.0 0.0 0.0);
			f	(8.182827e+00 2.398415e+00 2.398415e+00);
			coordinateSystem
			{
				type	cartesian;
				origin	(0.0 0.0 0.0);
				coordinateRotation
				{
					type	axesRotation;
					e1	( -1.209072e-15 -9.106814e-01 -4.130974e-01 );
					e2	( -3.146788e-03 -4.131164e-01 9.106728e-01 );
				}
			}
			rho	rho;
			mu	mu;
		}
		selectionMode	cellZone;
		cellZone	zone15;
	}
}
porosityInzone16
{
	active	true;
	type	explicitPorositySource;
	explicitPorositySourceCoeffs
	{
		type	DarcyForchheimer;
		DarcyForchheimerCoeffs
		{
			d	(0.0 0.0 0.0);
			f	(8.182827e+00 2.398415e+00 2.398415e+00);
			coordinateSystem
			{
				type	cartesian;
				origin	(0.0 0.0 0.0);
				coordinateRotation
				{
					type	axesRotation;
					e1	( 9.523024e-02 -9.060552e-01 -4.097790e-01 );
					e2	( -2.483767e-03 -4.123161e-01 9.110374e-01 );
				}
			}
			rho	rho;
			mu	mu;
		}
		selectionMode	cellZone;
		cellZone	zone16;
	}
}
porosityInzone17
{
	active	true;
	type	explicitPorositySource;
	explicitPorositySourceCoeffs
	{
		type	DarcyForchheimer;
		DarcyForchheimerCoeffs
		{
			d	(0.0 0.0 0.0);
			f	(8.182827e+00 2.398415e+00 2.398415e+00);
			coordinateSystem
			{
				type	cartesian;
				origin	(0.0 0.0 0.0);
				coordinateRotation
				{
					type	axesRotation;
					e1	( 1.897092e-01 -8.925115e-01 -3.997743e-01 );
					e2	( -2.234688e-03 -4.091992e-01 9.124424e-01 );
				}
			}
			rho	rho;
			mu	mu;
		}
		selectionMode	cellZone;
		cellZone	zone17;
	}
}
porosityInzone18
{
	active	true;
	type	explicitPorositySource;
	explicitPorositySourceCoeffs
	{
		type	DarcyForchheimer;
		DarcyForchheimerCoeffs
		{
			d	(0.0 0.0 0.0);
			f	(8.182827e+00 2.398415e+00 2.398415e+00);
			coordinateSystem
			{
				type	cartesian;
				origin	(0.0 0.0 0.0);
				coordinateRotation
				{
					type	axesRotation;
					e1	( 2.824858e-01 -8.694020e-01 -3.846252e-01 );
					e2	( -2.959034e-03 -4.053989e-01 9.141351e-01 );
				}
			}
			rho	rho;
			mu	mu;
		}
		selectionMode	cellZone;
		cellZone	zone18;
	}
}
porosityInzone19
{
	active	true;
	type	explicitPorositySource;
	explicitPorositySourceCoeffs
	{
		type	DarcyForchheimer;
		DarcyForchheimerCoeffs
		{
			d	(0.0 0.0 0.0);
			f	(8.182827e+00 2.398415e+00 2.398415e+00);
			coordinateSystem
			{
				type	cartesian;
				origin	(0.0 0.0 0.0);
				coordinateRotation
				{
					type	axesRotation;
					e1	( 3.720062e-01 -8.355396e-01 -3.680282e-01 );
					e2	( -3.284675e-03 -4.043382e-01 9.146036e-01 );
				}
			}
			rho	rho;
			mu	mu;
		}
		selectionMode	cellZone;
		cellZone	zone19;
	}
}
porosityInzone20
{
	active	true;
	type	explicitPorositySource;
	explicitPorositySourceCoeffs
	{
		type	DarcyForchheimer;
		DarcyForchheimerCoeffs
		{
			d	(0.0 0.0 0.0);
			f	(8.182827e+00 2.398415e+00 2.398415e+00);
			coordinateSystem
			{
				type	cartesian;
				origin	(0.0 0.0 0.0);
				coordinateRotation
				{
					type	axesRotation;
					e1	( 4.574770e-01 -7.923733e-01 -3.476212e-01 );
					e2	( -3.711468e-03 -4.035603e-01 9.149455e-01 );
				}
			}
			rho	rho;
			mu	mu;
		}
		selectionMode	cellZone;
		cellZone	zone20;
	}
}
porosityInzone21
{
	active	true;
	type	explicitPorositySource;
	explicitPorositySourceCoeffs
	{
		type	DarcyForchheimer;
		DarcyForchheimerCoeffs
		{
			d	(0.0 0.0 0.0);
			f	(8.182827e+00 2.398415e+00 2.398415e+00);
			coordinateSystem
			{
				type	cartesian;
				origin	(0.0 0.0 0.0);
				coordinateRotation
				{
					type	axesRotation;
					e1	( 5.396277e-01 -7.427338e-01 -3.174419e-01 );
					e2	( -5.507757e-03 -3.964002e-01 9.180613e-01 );
				}
			}
			rho	rho;
			mu	mu;
		}
		selectionMode	cellZone;
		cellZone	zone21;
	}
}
porosityInzone22
{
	active	true;
	type	explicitPorositySource;
	explicitPorositySourceCoeffs
	{
		type	DarcyForchheimer;
		DarcyForchheimerCoeffs
		{
			d	(0.0 0.0 0.0);
			f	(8.182827e+00 2.398415e+00 2.398415e+00);
			coordinateSystem
			{
				type	cartesian;
				origin	(0.0 0.0 0.0);
				coordinateRotation
				{
					type	axesRotation;
					e1	( 6.158490e-01 -6.839696e-01 -2.854244e-01 );
					e2	( -7.655253e-03 -3.909875e-01 9.203641e-01 );
				}
			}
			rho	rho;
			mu	mu;
		}
		selectionMode	cellZone;
		cellZone	zone22;
	}
}
porosityInzone23
{
	active	true;
	type	explicitPorositySource;
	explicitPorositySourceCoeffs
	{
		type	DarcyForchheimer;
		DarcyForchheimerCoeffs
		{
			d	(0.0 0.0 0.0);
			f	(8.182827e+00 2.398415e+00 2.398415e+00);
			coordinateSystem
			{
				type	cartesian;
				origin	(0.0 0.0 0.0);
				coordinateRotation
				{
					type	axesRotation;
					e1	( 6.842047e-01 -6.160607e-01 -2.536825e-01 );
					e2	( -9.949100e-03 -3.901895e-01 9.206808e-01 );
				}
			}
			rho	rho;
			mu	mu;
		}
		selectionMode	cellZone;
		cellZone	zone23;
	}
}
porosityInzone24
{
	active	true;
	type	explicitPorositySource;
	explicitPorositySourceCoeffs
	{
		type	DarcyForchheimer;
		DarcyForchheimerCoeffs
		{
			d	(0.0 0.0 0.0);
			f	(8.182827e+00 2.398415e+00 2.398415e+00);
			coordinateSystem
			{
				type	cartesian;
				origin	(0.0 0.0 0.0);
				coordinateRotation
				{
					type	axesRotation;
					e1	( 7.446319e-01 -5.410067e-01 -2.198521e-01 );
					e2	( -1.214694e-02 -3.907693e-01 9.204085e-01 );
				}
			}
			rho	rho;
			mu	mu;
		}
		selectionMode	cellZone;
		cellZone	zone24;
	}
}
porosityInzone25
{
	active	true;
	type	explicitPorositySource;
	explicitPorositySourceCoeffs
	{
		type	DarcyForchheimer;
		DarcyForchheimerCoeffs
		{
			d	(0.0 0.0 0.0);
			f	(8.182827e+00 2.398415e+00 2.398415e+00);
			coordinateSystem
			{
				type	cartesian;
				origin	(0.0 0.0 0.0);
				coordinateRotation
				{
					type	axesRotation;
					e1	( 7.969366e-01 -4.601116e-01 -1.825344e-01 );
					e2	( -1.503343e-02 -3.911220e-01 9.202160e-01 );
				}
			}
			rho	rho;
			mu	mu;
		}
		selectionMode	cellZone;
		cellZone	zone25;
	}
}
porosityInzone26
{
	active	true;
	type	explicitPorositySource;
	explicitPorositySourceCoeffs
	{
		type	DarcyForchheimer;
		DarcyForchheimerCoeffs
		{
			d	(0.0 0.0 0.0);
			f	(8.182827e+00 2.398415e+00 2.398415e+00);
			coordinateSystem
			{
				type	cartesian;
				origin	(0.0 0.0 0.0);
				coordinateRotation
				{
					type	axesRotation;
					e1	( 8.398000e-01 -3.739030e-01 -1.451648e-01 );
					e2	( -1.619817e-02 -3.932983e-01 9.192682e-01 );
				}
			}
			rho	rho;
			mu	mu;
		}
		selectionMode	cellZone;
		cellZone	zone26;
	}
}
porosityInzone27
{
	active	true;
	type	explicitPorositySource;
	explicitPorositySourceCoeffs
	{
		type	DarcyForchheimer;
		DarcyForchheimerCoeffs
		{
			d	(0.0 0.0 0.0);
			f	(8.182827e+00 2.398415e+00 2.398415e+00);
			coordinateSystem
			{
				type	cartesian;
				origin	(0.0 0.0 0.0);
				coordinateRotation
				{
					type	axesRotation;
					e1	( 8.724078e-01 -2.834625e-01 -1.134159e-01 );
					e2	( -1.008418e-02 -3.980779e-01 9.172962e-01 );
				}
			}
			rho	rho;
			mu	mu;
		}
		selectionMode	cellZone;
		cellZone	zone27;
	}
}
porosityInzone28
{
	active	true;
	type	explicitPorositySource;
	explicitPorositySourceCoeffs
	{
		type	DarcyForchheimer;
		DarcyForchheimerCoeffs
		{
			d	(0.0 0.0 0.0);
			f	(8.182827e+00 2.398415e+00 2.398415e+00);
			coordinateSystem
			{
				type	cartesian;
				origin	(0.0 0.0 0.0);
				coordinateRotation
				{
					type	axesRotation;
					e1	( 8.966277e-01 -1.905841e-01 -8.851925e-02 );
					e2	( 5.554059e-03 -3.996485e-01 9.166516e-01 );
				}
			}
			rho	rho;
			mu	mu;
		}
		selectionMode	cellZone;
		cellZone	zone28;
	}
}
porosityInzone29
{
	active	true;
	type	explicitPorositySource;
	explicitPorositySourceCoeffs
	{
		type	DarcyForchheimer;
		DarcyForchheimerCoeffs
		{
			d	(0.0 0.0 0.0);
			f	(8.182827e+00 2.398415e+00 2.398415e+00);
			coordinateSystem
			{
				type	cartesian;
				origin	(0.0 0.0 0.0);
				coordinateRotation
				{
					type	axesRotation;
					e1	( 9.146050e-01 -9.612886e-02 -6.334562e-02 );
					e2	( 2.248471e-02 -3.921267e-01 9.196364e-01 );
				}
			}
			rho	rho;
			mu	mu;
		}
		selectionMode	cellZone;
		cellZone	zone29;
	}
}
porosityInzone30
{
	active	true;
	type	explicitPorositySource;
	explicitPorositySourceCoeffs
	{
		type	DarcyForchheimer;
		DarcyForchheimerCoeffs
		{
			d	(0.0 0.0 0.0);
			f	(8.182827e+00 2.398415e+00 2.398415e+00);
			coordinateSystem
			{
				type	cartesian;
				origin	(0.0 0.0 0.0);
				coordinateRotation
				{
					type	axesRotation;
					e1	( 9.206565e-01 -1.222315e-15 -2.738814e-02 );
					e2	( 2.738688e-02 -3.894289e-01 9.206493e-01 );
				}
			}
			rho	rho;
			mu	mu;
		}
		selectionMode	cellZone;
		cellZone	zone30;
	}
}
porosityInzone31
{
	active	true;
	type	explicitPorositySource;
	explicitPorositySourceCoeffs
	{
		type	DarcyForchheimer;
		DarcyForchheimerCoeffs
		{
			d	(0.0 0.0 0.0);
			f	(8.182827e+00 2.398415e+00 2.398415e+00);
			coordinateSystem
			{
				type	cartesian;
				origin	(0.0 0.0 0.0);
				coordinateRotation
				{
					type	axesRotation;
					e1	( 9.152767e-01 9.619945e-02 2.139767e-02 );
					e2	( 1.954426e-02 -3.906986e-01 9.203112e-01 );
				}
			}
			rho	rho;
			mu	mu;
		}
		selectionMode	cellZone;
		cellZone	zone31;
	}
}
porosityInzone32
{
	active	true;
	type	explicitPorositySource;
	explicitPorositySourceCoeffs
	{
		type	DarcyForchheimer;
		DarcyForchheimerCoeffs
		{
			d	(0.0 0.0 0.0);
			f	(8.182827e+00 2.398415e+00 2.398415e+00);
			coordinateSystem
			{
				type	cartesian;
				origin	(0.0 0.0 0.0);
				coordinateRotation
				{
					type	axesRotation;
					e1	( 9.000767e-01 1.913172e-01 7.511204e-02 );
					e2	( 6.408765e-03 -3.914486e-01 9.201777e-01 );
				}
			}
			rho	rho;
			mu	mu;
		}
		selectionMode	cellZone;
		cellZone	zone32;
	}
}
porosityInzone33
{
	active	true;
	type	explicitPorositySource;
	explicitPorositySourceCoeffs
	{
		type	DarcyForchheimer;
		DarcyForchheimerCoeffs
		{
			d	(0.0 0.0 0.0);
			f	(8.182827e+00 2.398415e+00 2.398415e+00);
			coordinateSystem
			{
				type	cartesian;
				origin	(0.0 0.0 0.0);
				coordinateRotation
				{
					type	axesRotation;
					e1	( 8.757646e-01 2.845532e-01 1.078603e-01 );
					e2	( 1.322114e-02 -3.897483e-01 9.208265e-01 );
				}
			}
			rho	rho;
			mu	mu;
		}
		selectionMode	cellZone;
		cellZone	zone33;
	}
}
porosityInzone34
{
	active	true;
	type	explicitPorositySource;
	explicitPorositySourceCoeffs
	{
		type	DarcyForchheimer;
		DarcyForchheimerCoeffs
		{
			d	(0.0 0.0 0.0);
			f	(8.182827e+00 2.398415e+00 2.398415e+00);
			coordinateSystem
			{
				type	cartesian;
				origin	(0.0 0.0 0.0);
				coordinateRotation
				{
					type	axesRotation;
					e1	( 8.431515e-01 3.753953e-01 1.406538e-01 );
					e2	( 1.724570e-02 -3.845633e-01 9.229375e-01 );
				}
			}
			rho	rho;
			mu	mu;
		}
		selectionMode	cellZone;
		cellZone	zone34;
	}
}
porosityInzone35
{
	active	true;
	type	explicitPorositySource;
	explicitPorositySourceCoeffs
	{
		type	DarcyForchheimer;
		DarcyForchheimerCoeffs
		{
			d	(0.0 0.0 0.0);
			f	(8.182827e+00 2.398415e+00 2.398415e+00);
			coordinateSystem
			{
				type	cartesian;
				origin	(0.0 0.0 0.0);
				coordinateRotation
				{
					type	axesRotation;
					e1	( 7.902594e-01 4.562565e-01 2.034586e-01 );
					e2	( 1.227812e-03 -4.090646e-01 9.125046e-01 );
				}
			}
			rho	rho;
			mu	mu;
		}
		selectionMode	cellZone;
		cellZone	zone35;
	}
}
porosityInzone36
{
	active	true;
	type	explicitPorositySource;
	explicitPorositySourceCoeffs
	{
		type	DarcyForchheimer;
		DarcyForchheimerCoeffs
		{
			d	(0.0 0.0 0.0);
			f	(8.182827e+00 2.398415e+00 2.398415e+00);
			coordinateSystem
			{
				type	cartesian;
				origin	(0.0 0.0 0.0);
				coordinateRotation
				{
					type	axesRotation;
					e1	( 7.313418e-01 5.313510e-01 2.616109e-01 );
					e2	( -1.287333e-02 -4.273839e-01 9.039786e-01 );
				}
			}
			rho	rho;
			mu	mu;
		}
		selectionMode	cellZone;
		cellZone	zone36;
	}
}
porosityInzone37
{
	active	true;
	type	explicitPorositySource;
	explicitPorositySourceCoeffs
	{
		type	DarcyForchheimer;
		DarcyForchheimerCoeffs
		{
			d	(0.0 0.0 0.0);
			f	(8.182827e+00 2.398415e+00 2.398415e+00);
			coordinateSystem
			{
				type	cartesian;
				origin	(0.0 0.0 0.0);
				coordinateRotation
				{
					type	axesRotation;
					e1	( 6.655533e-01 5.992669e-01 3.188784e-01 );
					e2	( -2.940016e-02 -4.439280e-01 8.955800e-01 );
				}
			}
			rho	rho;
			mu	mu;
		}
		selectionMode	cellZone;
		cellZone	zone37;
	}
}
porosityInzone38
{
	active	true;
	type	explicitPorositySource;
	explicitPorositySourceCoeffs
	{
		type	DarcyForchheimer;
		DarcyForchheimerCoeffs
		{
			d	(0.0 0.0 0.0);
			f	(8.182827e+00 2.398415e+00 2.398415e+00);
			coordinateSystem
			{
				type	cartesian;
				origin	(0.0 0.0 0.0);
				coordinateRotation
				{
					type	axesRotation;
					e1	( 5.967333e-01 6.627395e-01 3.598053e-01 );
					e2	( -3.693504e-02 -4.509325e-01 8.917935e-01 );
				}
			}
			rho	rho;
			mu	mu;
		}
		selectionMode	cellZone;
		cellZone	zone38;
	}
}
porosityInzone39
{
	active	true;
	type	explicitPorositySource;
	explicitPorositySourceCoeffs
	{
		type	DarcyForchheimer;
		DarcyForchheimerCoeffs
		{
			d	(0.0 0.0 0.0);
			f	(8.182827e+00 2.398415e+00 2.398415e+00);
			coordinateSystem
			{
				type	cartesian;
				origin	(0.0 0.0 0.0);
				coordinateRotation
				{
					type	axesRotation;
					e1	( 5.260630e-01 7.240636e-01 3.802773e-01 );
					e2	( -3.486770e-02 -4.447375e-01 8.949820e-01 );
				}
			}
			rho	rho;
			mu	mu;
		}
		selectionMode	cellZone;
		cellZone	zone39;
	}
}
porosityInzone40
{
	active	true;
	type	explicitPorositySource;
	explicitPorositySourceCoeffs
	{
		type	DarcyForchheimer;
		DarcyForchheimerCoeffs
		{
			d	(0.0 0.0 0.0);
			f	(8.182827e+00 2.398415e+00 2.398415e+00);
			coordinateSystem
			{
				type	cartesian;
				origin	(0.0 0.0 0.0);
				coordinateRotation
				{
					type	axesRotation;
					e1	( 4.469101e-01 7.740709e-01 4.047765e-01 );
					e2	( -3.526590e-02 -4.470568e-01 8.938101e-01 );
				}
			}
			rho	rho;
			mu	mu;
		}
		selectionMode	cellZone;
		cellZone	zone40;
	}
}
porosityInzone41
{
	active	true;
	type	explicitPorositySource;
	explicitPorositySourceCoeffs
	{
		type	DarcyForchheimer;
		DarcyForchheimerCoeffs
		{
			d	(0.0 0.0 0.0);
			f	(8.182827e+00 2.398415e+00 2.398415e+00);
			coordinateSystem
			{
				type	cartesian;
				origin	(0.0 0.0 0.0);
				coordinateRotation
				{
					type	axesRotation;
					e1	( 3.647696e-01 8.192859e-01 4.155196e-01 );
					e2	( -3.029142e-02 -4.413735e-01 8.968121e-01 );
				}
			}
			rho	rho;
			mu	mu;
		}
		selectionMode	cellZone;
		cellZone	zone41;
	}
}
porosityInzone42
{
	active	true;
	type	explicitPorositySource;
	explicitPorositySourceCoeffs
	{
		type	DarcyForchheimer;
		DarcyForchheimerCoeffs
		{
			d	(0.0 0.0 0.0);
			f	(8.182827e+00 2.398415e+00 2.398415e+00);
			coordinateSystem
			{
				type	cartesian;
				origin	(0.0 0.0 0.0);
				coordinateRotation
				{
					type	axesRotation;
					e1	( 2.735359e-01 8.418568e-01 4.514651e-01 );
					e2	( -3.260872e-02 -4.641265e-01 8.851685e-01 );
				}
			}
			rho	rho;
			mu	mu;
		}
		selectionMode	cellZone;
		cellZone	zone42;
	}
}
porosityInzone43
{
	active	true;
	type	explicitPorositySource;
	explicitPorositySourceCoeffs
	{
		type	DarcyForchheimer;
		DarcyForchheimerCoeffs
		{
			d	(0.0 0.0 0.0);
			f	(8.182827e+00 2.398415e+00 2.398415e+00);
			coordinateSystem
			{
				type	cartesian;
				origin	(0.0 0.0 0.0);
				coordinateRotation
				{
					type	axesRotation;
					e1	( 1.846568e-01 8.687418e-01 4.558136e-01 );
					e2	( -3.753770e-02 -4.580405e-01 8.881384e-01 );
				}
			}
			rho	rho;
			mu	mu;
		}
		selectionMode	cellZone;
		cellZone	zone43;
	}
}
porosityInzone44
{
	active	true;
	type	explicitPorositySource;
	explicitPorositySourceCoeffs
	{
		type	DarcyForchheimer;
		DarcyForchheimerCoeffs
		{
			d	(0.0 0.0 0.0);
			f	(8.182827e+00 2.398415e+00 2.398415e+00);
			coordinateSystem
			{
				type	cartesian;
				origin	(0.0 0.0 0.0);
				coordinateRotation
				{
					type	axesRotation;
					e1	( 9.411793e-02 8.954722e-01 4.347617e-01 );
					e2	( -2.960933e-02 -4.340661e-01 9.003943e-01 );
				}
			}
			rho	rho;
			mu	mu;
		}
		selectionMode	cellZone;
		cellZone	zone44;
	}
}
porosityInzone45
{
	active	true;
	type	explicitPorositySource;
	explicitPorositySourceCoeffs
	{
		type	DarcyForchheimer;
		DarcyForchheimerCoeffs
		{
			d	(0.0 0.0 0.0);
			f	(8.182827e+00 2.398415e+00 2.398415e+00);
			coordinateSystem
			{
				type	cartesian;
				origin	(0.0 0.0 0.0);
				coordinateRotation
				{
					type	axesRotation;
					e1	( 1.220486e-15 9.192782e-01 3.935854e-01 );
					e2	( 4.249555e-03 -3.936068e-01 9.192691e-01 );
				}
			}
			rho	rho;
			mu	mu;
		}
		selectionMode	cellZone;
		cellZone	zone45;
	}
}
porosityInzone46
{
	active	true;
	type	explicitPorositySource;
	explicitPorositySourceCoeffs
	{
		type	DarcyForchheimer;
		DarcyForchheimerCoeffs
		{
			d	(0.0 0.0 0.0);
			f	(8.182827e+00 2.398415e+00 2.398415e+00);
			coordinateSystem
			{
				type	cartesian;
				origin	(0.0 0.0 0.0);
				coordinateRotation
				{
					type	axesRotation;
					e1	( -9.399165e-02 8.942708e-01 4.375133e-01 );
					e2	( 4.053287e-02 -4.356846e-01 8.991863e-01 );
				}
			}
			rho	rho;
			mu	mu;
		}
		selectionMode	cellZone;
		cellZone	zone46;
	}
}
porosityInzone47
{
	active	true;
	type	explicitPorositySource;
	explicitPorositySourceCoeffs
	{
		type	DarcyForchheimer;
		DarcyForchheimerCoeffs
		{
			d	(0.0 0.0 0.0);
			f	(8.182827e+00 2.398415e+00 2.398415e+00);
			coordinateSystem
			{
				type	cartesian;
				origin	(0.0 0.0 0.0);
				coordinateRotation
				{
					type	axesRotation;
					e1	( -1.849560e-01 8.701495e-01 4.534347e-01 );
					e2	( 4.045036e-02 -4.549892e-01 8.895778e-01 );
				}
			}
			rho	rho;
			mu	mu;
		}
		selectionMode	cellZone;
		cellZone	zone47;
	}
}
porosityInzone48
{
	active	true;
	type	explicitPorositySource;
	explicitPorositySourceCoeffs
	{
		type	DarcyForchheimer;
		DarcyForchheimerCoeffs
		{
			d	(0.0 0.0 0.0);
			f	(8.182827e+00 2.398415e+00 2.398415e+00);
			coordinateSystem
			{
				type	cartesian;
				origin	(0.0 0.0 0.0);
				coordinateRotation
				{
					type	axesRotation;
					e1	( -2.755492e-01 8.480533e-01 4.402163e-01 );
					e2	( 3.589100e-02 -4.512300e-01 8.916857e-01 );
				}
			}
			rho	rho;
			mu	mu;
		}
		selectionMode	cellZone;
		cellZone	zone48;
	}
}
porosityInzone49
{
	active	true;
	type	explicitPorositySource;
	explicitPorositySourceCoeffs
	{
		type	DarcyForchheimer;
		DarcyForchheimerCoeffs
		{
			d	(0.0 0.0 0.0);
			f	(8.182827e+00 2.398415e+00 2.398415e+00);
			coordinateSystem
			{
				type	cartesian;
				origin	(0.0 0.0 0.0);
				coordinateRotation
				{
					type	axesRotation;
					e1	( -3.653527e-01 8.205956e-01 4.134107e-01 );
					e2	( 3.193824e-02 -4.383334e-01 8.982448e-01 );
				}
			}
			rho	rho;
			mu	mu;
		}
		selectionMode	cellZone;
		cellZone	zone49;
	}
}
porosityInzone50
{
	active	true;
	type	explicitPorositySource;
	explicitPorositySourceCoeffs
	{
		type	DarcyForchheimer;
		DarcyForchheimerCoeffs
		{
			d	(0.0 0.0 0.0);
			f	(8.182827e+00 2.398415e+00 2.398415e+00);
			coordinateSystem
			{
				type	cartesian;
				origin	(0.0 0.0 0.0);
				coordinateRotation
				{
					type	axesRotation;
					e1	( -4.462860e-01 7.729901e-01 4.083797e-01 );
					e2	( 3.864567e-02 -4.492663e-01 8.925617e-01 );
				}
			}
			rho	rho;
			mu	mu;
		}
		selectionMode	cellZone;
		cellZone	zone50;
	}
}
porosityInzone51
{
	active	true;
	type	explicitPorositySource;
	explicitPorositySourceCoeffs
	{
		type	DarcyForchheimer;
		DarcyForchheimerCoeffs
		{
			d	(0.0 0.0 0.0);
			f	(8.182827e+00 2.398415e+00 2.398415e+00);
			coordinateSystem
			{
				type	cartesian;
				origin	(0.0 0.0 0.0);
				coordinateRotation
				{
					type	axesRotation;
					e1	( -5.247120e-01 7.222041e-01 3.858978e-01 );
					e2	( 3.851328e-02 -4.490365e-01 8.926830e-01 );
				}
			}
			rho	rho;
			mu	mu;
		}
		selectionMode	cellZone;
		cellZone	zone51;
	}
}
porosityInzone52
{
	active	true;
	type	explicitPorositySource;
	explicitPorositySourceCoeffs
	{
		type	DarcyForchheimer;
		DarcyForchheimerCoeffs
		{
			d	(0.0 0.0 0.0);
			f	(8.182827e+00 2.398415e+00 2.398415e+00);
			coordinateSystem
			{
				type	cartesian;
				origin	(0.0 0.0 0.0);
				coordinateRotation
				{
					type	axesRotation;
					e1	( -5.999568e-01 6.663195e-01 3.492627e-01 );
					e2	( 3.143048e-02 -4.417022e-01 8.966110e-01 );
				}
			}
			rho	rho;
			mu	mu;
		}
		selectionMode	cellZone;
		cellZone	zone52;
	}
}
porosityInzone53
{
	active	true;
	type	explicitPorositySource;
	explicitPorositySourceCoeffs
	{
		type	DarcyForchheimer;
		DarcyForchheimerCoeffs
		{
			d	(0.0 0.0 0.0);
			f	(8.182827e+00 2.398415e+00 2.398415e+00);
			coordinateSystem
			{
				type	cartesian;
				origin	(0.0 0.0 0.0);
				coordinateRotation
				{
					type	axesRotation;
					e1	( -6.704863e-01 6.037086e-01 3.047651e-01 );
					e2	( 2.231688e-02 -4.307013e-01 9.022185e-01 );
				}
			}
			rho	rho;
			mu	mu;
		}
		selectionMode	cellZone;
		cellZone	zone53;
	}
}
porosityInzone54
{
	active	true;
	type	explicitPorositySource;
	explicitPorositySourceCoeffs
	{
		type	DarcyForchheimer;
		DarcyForchheimerCoeffs
		{
			d	(0.0 0.0 0.0);
			f	(8.182827e+00 2.398415e+00 2.398415e+00);
			coordinateSystem
			{
				type	cartesian;
				origin	(0.0 0.0 0.0);
				coordinateRotation
				{
					type	axesRotation;
					e1	( -7.320726e-01 5.318819e-01 2.628694e-01 );
					e2	( 1.589402e-02 -4.253655e-01 9.048821e-01 );
				}
			}
			rho	rho;
			mu	mu;
		}
		selectionMode	cellZone;
		cellZone	zone54;
	}
}
porosityInzone55
{
	active	true;
	type	explicitPorositySource;
	explicitPorositySourceCoeffs
	{
		type	DarcyForchheimer;
		DarcyForchheimerCoeffs
		{
			d	(0.0 0.0 0.0);
			f	(8.182827e+00 2.398415e+00 2.398415e+00);
			coordinateSystem
			{
				type	cartesian;
				origin	(0.0 0.0 0.0);
				coordinateRotation
				{
					type	axesRotation;
					e1	( -7.868469e-01 4.542863e-01 2.172503e-01 );
					e2	( 9.750291e-03 -4.176336e-01 9.085632e-01 );
				}
			}
			rho	rho;
			mu	mu;
		}