FoamFile
{
    version    2.0;
    format    ascii;
    class    dictionary;
    location    "system";
    object    topoSetDict;
}
actions    (    {
        name    zone0;
        type    cellZoneSet;
        action    new;
        source    surfaceToCell;
        sourceInfo
        {
            file    "constant/triSurface/STL_Files/0.stl";
            //useSurfaceOrientation    true;
            outsidePoints    ();
            includeInside    false;
            includeOutside    false;
            includeCut    true;
            nearDistance    -1.0;
            curvature    -100.0;
        }
    }    {
        name    zone1;
        type    cellZoneSet;
        action    new;
        source    surfaceToCell;
        sourceInfo
        {
            file    "constant/triSurface/STL_Files/1.stl";
            //useSurfaceOrientation    true;
            outsidePoints    ();
            includeInside    false;
            includeOutside    false;
            includeCut    true;
            nearDistance    -1.0;
            curvature    -100.0;
        }
    }    {
        name    zone2;
        type    cellZoneSet;
        action    new;
        source    surfaceToCell;
        sourceInfo
        {
            file    "constant/triSurface/STL_Files/2.stl";
            //useSurfaceOrientation    true;
            outsidePoints    ();
            includeInside    false;
            includeOutside    false;
            includeCut    true;
            nearDistance    -1.0;
            curvature    -100.0;
        }
    }    {
        name    zone3;
        type    cellZoneSet;
        action    new;
        source    surfaceToCell;
        sourceInfo
        {
            file    "constant/triSurface/STL_Files/3.stl";
            //useSurfaceOrientation    true;
            outsidePoints    ();
            includeInside    false;
            includeOutside    false;
            includeCut    true;
            nearDistance    -1.0;
            curvature    -100.0;
        }
    }    {
        name    zone4;
        type    cellZoneSet;
        action    new;
        source    surfaceToCell;
        sourceInfo
        {
            file    "constant/triSurface/STL_Files/4.stl";
            //useSurfaceOrientation    true;
            outsidePoints    ();
            includeInside    false;
            includeOutside    false;
            includeCut    true;
            nearDistance    -1.0;
            curvature    -100.0;
        }
    }    {
        name    zone5;
        type    cellZoneSet;
        action    new;
        source    surfaceToCell;
        sourceInfo
        {
            file    "constant/triSurface/STL_Files/5.stl";
            //useSurfaceOrientation    true;
            outsidePoints    ();
            includeInside    false;
            includeOutside    false;
            includeCut    true;
            nearDistance    -1.0;
            curvature    -100.0;
        }
    }    {
        name    zone6;
        type    cellZoneSet;
        action    new;
        source    surfaceToCell;
        sourceInfo
        {
            file    "constant/triSurface/STL_Files/6.stl";
            //useSurfaceOrientation    true;
            outsidePoints    ();
            includeInside    false;
            includeOutside    false;
            includeCut    true;
            nearDistance    -1.0;
            curvature    -100.0;
        }
    }    {
        name    zone7;
        type    cellZoneSet;
        action    new;
        source    surfaceToCell;
        sourceInfo
        {
            file    "constant/triSurface/STL_Files/7.stl";
            //useSurfaceOrientation    true;
            outsidePoints    ();
            includeInside    false;
            includeOutside    false;
            includeCut    true;
            nearDistance    -1.0;
            curvature    -100.0;
        }
    }    {
        name    zone8;
        type    cellZoneSet;
        action    new;
        source    surfaceToCell;
        sourceInfo
        {
            file    "constant/triSurface/STL_Files/8.stl";
            //useSurfaceOrientation    true;
            outsidePoints    ();
            includeInside    false;
            includeOutside    false;
            includeCut    true;
            nearDistance    -1.0;
            curvature    -100.0;
        }
    }    {
        name    zone9;
        type    cellZoneSet;
        action    new;
        source    surfaceToCell;
        sourceInfo
        {
            file    "constant/triSurface/STL_Files/9.stl";
            //useSurfaceOrientation    true;
            outsidePoints    ();
            includeInside    false;
            includeOutside    false;
            includeCut    true;
            nearDistance    -1.0;
            curvature    -100.0;
        }
    }    {
        name    zone10;
        type    cellZoneSet;
        action    new;
        source    surfaceToCell;
        sourceInfo
        {
            file    "constant/triSurface/STL_Files/10.stl";
            //useSurfaceOrientation    true;
            outsidePoints    ();
            includeInside    false;
            includeOutside    false;
            includeCut    true;
            nearDistance    -1.0;
            curvature    -100.0;
        }
    }    {
        name    zone11;
        type    cellZoneSet;
        action    new;
        source    surfaceToCell;
        sourceInfo
        {
            file    "constant/triSurface/STL_Files/11.stl";
            //useSurfaceOrientation    true;
            outsidePoints    ();
            includeInside    false;
            includeOutside    false;
            includeCut    true;
            nearDistance    -1.0;
            curvature    -100.0;
        }
    }    {
        name    zone12;
        type    cellZoneSet;
        action    new;
        source    surfaceToCell;
        sourceInfo
        {
            file    "constant/triSurface/STL_Files/12.stl";
            //useSurfaceOrientation    true;
            outsidePoints    ();
            includeInside    false;
            includeOutside    false;
            includeCut    true;
            nearDistance    -1.0;
            curvature    -100.0;
        }
    }    {
        name    zone13;
        type    cellZoneSet;
        action    new;
        source    surfaceToCell;
        sourceInfo
        {
            file    "constant/triSurface/STL_Files/13.stl";
            //useSurfaceOrientation    true;
            outsidePoints    ();
            includeInside    false;
            includeOutside    false;
            includeCut    true;
            nearDistance    -1.0;
            curvature    -100.0;
        }
    }    {
        name    zone14;
        type    cellZoneSet;
        action    new;
        source    surfaceToCell;
        sourceInfo
        {
            file    "constant/triSurface/STL_Files/14.stl";
            //useSurfaceOrientation    true;
            outsidePoints    ();
            includeInside    false;
            includeOutside    false;
            includeCut    true;
            nearDistance    -1.0;
            curvature    -100.0;
        }
    }    {
        name    zone15;
        type    cellZoneSet;
        action    new;
        source    surfaceToCell;
        sourceInfo
        {
            file    "constant/triSurface/STL_Files/15.stl";
            //useSurfaceOrientation    true;
            outsidePoints    ();
            includeInside    false;
            includeOutside    false;
            includeCut    true;
            nearDistance    -1.0;
            curvature    -100.0;
        }
    }    {
        name    zone16;
        type    cellZoneSet;
        action    new;
        source    surfaceToCell;
        sourceInfo
        {
            file    "constant/triSurface/STL_Files/16.stl";
            //useSurfaceOrientation    true;
            outsidePoints    ();
            includeInside    false;
            includeOutside    false;
            includeCut    true;
            nearDistance    -1.0;
            curvature    -100.0;
        }
    }    {
        name    zone17;
        type    cellZoneSet;
        action    new;
        source    surfaceToCell;
        sourceInfo
        {
            file    "constant/triSurface/STL_Files/17.stl";
            //useSurfaceOrientation    true;
            outsidePoints    ();
            includeInside    false;
            includeOutside    false;
            includeCut    true;
            nearDistance    -1.0;
            curvature    -100.0;
        }
    }    {
        name    zone18;
        type    cellZoneSet;
        action    new;
        source    surfaceToCell;
        sourceInfo
        {
            file    "constant/triSurface/STL_Files/18.stl";
            //useSurfaceOrientation    true;
            outsidePoints    ();
            includeInside    false;
            includeOutside    false;
            includeCut    true;
            nearDistance    -1.0;
            curvature    -100.0;
        }
    }    {
        name    zone19;
        type    cellZoneSet;
        action    new;
        source    surfaceToCell;
        sourceInfo
        {
            file    "constant/triSurface/STL_Files/19.stl";
            //useSurfaceOrientation    true;
            outsidePoints    ();
            includeInside    false;
            includeOutside    false;
            includeCut    true;
            nearDistance    -1.0;
            curvature    -100.0;
        }
    }    {
        name    zone20;
        type    cellZoneSet;
        action    new;
        source    surfaceToCell;
        sourceInfo
        {
            file    "constant/triSurface/STL_Files/20.stl";
            //useSurfaceOrientation    true;
            outsidePoints    ();
            includeInside    false;
            includeOutside    false;
            includeCut    true;
            nearDistance    -1.0;
            curvature    -100.0;
        }
    }    {
        name    zone21;
        type    cellZoneSet;
        action    new;
        source    surfaceToCell;
        sourceInfo
        {
            file    "constant/triSurface/STL_Files/21.stl";
            //useSurfaceOrientation    true;
            outsidePoints    ();
            includeInside    false;
            includeOutside    false;
            includeCut    true;
            nearDistance    -1.0;
            curvature    -100.0;
        }
    }    {
        name    zone22;
        type    cellZoneSet;
        action    new;
        source    surfaceToCell;
        sourceInfo
        {
            file    "constant/triSurface/STL_Files/22.stl";
            //useSurfaceOrientation    true;
            outsidePoints    ();
            includeInside    false;
            includeOutside    false;
            includeCut    true;
            nearDistance    -1.0;
            curvature    -100.0;
        }
    }    {
        name    zone23;
        type    cellZoneSet;
        action    new;
        source    surfaceToCell;
        sourceInfo
        {
            file    "constant/triSurface/STL_Files/23.stl";
            //useSurfaceOrientation    true;
            outsidePoints    ();
            includeInside    false;
            includeOutside    false;
            includeCut    true;
            nearDistance    -1.0;
            curvature    -100.0;
        }
    }    {
        name    zone24;
        type    cellZoneSet;
        action    new;
        source    surfaceToCell;
        sourceInfo
        {
            file    "constant/triSurface/STL_Files/24.stl";
            //useSurfaceOrientation    true;
            outsidePoints    ();
            includeInside    false;
            includeOutside    false;
            includeCut    true;
            nearDistance    -1.0;
            curvature    -100.0;
        }
    }    {
        name    zone25;
        type    cellZoneSet;
        action    new;
        source    surfaceToCell;
        sourceInfo
        {
            file    "constant/triSurface/STL_Files/25.stl";
            //useSurfaceOrientation    true;
            outsidePoints    ();
            includeInside    false;
            includeOutside    false;
            includeCut    true;
            nearDistance    -1.0;
            curvature    -100.0;
        }
    }    {
        name    zone26;
        type    cellZoneSet;
        action    new;
        source    surfaceToCell;
        sourceInfo
        {
            file    "constant/triSurface/STL_Files/26.stl";
            //useSurfaceOrientation    true;
            outsidePoints    ();
            includeInside    false;
            includeOutside    false;
            includeCut    true;
            nearDistance    -1.0;
            curvature    -100.0;
        }
    }    {
        name    zone27;
        type    cellZoneSet;
        action    new;
        source    surfaceToCell;
        sourceInfo
        {
            file    "constant/triSurface/STL_Files/27.stl";
            //useSurfaceOrientation    true;
            outsidePoints    ();
            includeInside    false;
            includeOutside    false;
            includeCut    true;
            nearDistance    -1.0;
            curvature    -100.0;
        }
    }    {
        name    zone28;
        type    cellZoneSet;
        action    new;
        source    surfaceToCell;
        sourceInfo
        {
            file    "constant/triSurface/STL_Files/28.stl";
            //useSurfaceOrientation    true;
            outsidePoints    ();
            includeInside    false;
            includeOutside    false;
            includeCut    true;
            nearDistance    -1.0;
            curvature    -100.0;
        }
    }    {
        name    zone29;
        type    cellZoneSet;
        action    new;
        source    surfaceToCell;
        sourceInfo
        {
            file    "constant/triSurface/STL_Files/29.stl";
            //useSurfaceOrientation    true;
            outsidePoints    ();
            includeInside    false;
            includeOutside    false;
            includeCut    true;
            nearDistance    -1.0;
            curvature    -100.0;
        }
    }    {
        name    zone30;
        type    cellZoneSet;
        action    new;
        source    surfaceToCell;
        sourceInfo
        {
            file    "constant/triSurface/STL_Files/30.stl";
            //useSurfaceOrientation    true;
            outsidePoints    ();
            includeInside    false;
            includeOutside    false;
            includeCut    true;
            nearDistance    -1.0;
            curvature    -100.0;
        }
    }    {
        name    zone31;
        type    cellZoneSet;
        action    new;
        source    surfaceToCell;
        sourceInfo
        {
            file    "constant/triSurface/STL_Files/31.stl";
            //useSurfaceOrientation    true;
            outsidePoints    ();
            includeInside    false;
            includeOutside    false;
            includeCut    true;
            nearDistance    -1.0;
            curvature    -100.0;
        }
    }    {
        name    zone32;
        type    cellZoneSet;
        action    new;
        source    surfaceToCell;
        sourceInfo
        {
            file    "constant/triSurface/STL_Files/32.stl";
            //useSurfaceOrientation    true;
            outsidePoints    ();
            includeInside    false;
            includeOutside    false;
            includeCut    true;
            nearDistance    -1.0;
            curvature    -100.0;
        }
    }    {
        name    zone33;
        type    cellZoneSet;
        action    new;
        source    surfaceToCell;
        sourceInfo
        {
            file    "constant/triSurface/STL_Files/33.stl";
            //useSurfaceOrientation    true;
            outsidePoints    ();
            includeInside    false;
            includeOutside    false;
            includeCut    true;
            nearDistance    -1.0;
            curvature    -100.0;
        }
    }    {
        name    zone34;
        type    cellZoneSet;
        action    new;
        source    surfaceToCell;
        sourceInfo
        {
            file    "constant/triSurface/STL_Files/34.stl";
            //useSurfaceOrientation    true;
            outsidePoints    ();
            includeInside    false;
            includeOutside    false;
            includeCut    true;
            nearDistance    -1.0;
            curvature    -100.0;
        }
    }    {
        name    zone35;
        type    cellZoneSet;
        action    new;
        source    surfaceToCell;
        sourceInfo
        {
            file    "constant/triSurface/STL_Files/35.stl";
            //useSurfaceOrientation    true;
            outsidePoints    ();
            includeInside    false;
            includeOutside    false;
            includeCut    true;
            nearDistance    -1.0;
            curvature    -100.0;
        }
    }    {
        name    zone36;
        type    cellZoneSet;
        action    new;
        source    surfaceToCell;
        sourceInfo
        {
            file    "constant/triSurface/STL_Files/36.stl";
            //useSurfaceOrientation    true;
            outsidePoints    ();
            includeInside    false;
            includeOutside    false;
            includeCut    true;
            nearDistance    -1.0;
            curvature    -100.0;
        }
    }    {
        name    zone37;
        type    cellZoneSet;
        action    new;
        source    surfaceToCell;
        sourceInfo
        {
            file    "constant/triSurface/STL_Files/37.stl";
            //useSurfaceOrientation    true;
            outsidePoints    ();
            includeInside    false;
            includeOutside    false;
            includeCut    true;
            nearDistance    -1.0;
            curvature    -100.0;
        }
    }    {
        name    zone38;
        type    cellZoneSet;
        action    new;
        source    surfaceToCell;
        sourceInfo
        {
            file    "constant/triSurface/STL_Files/38.stl";
            //useSurfaceOrientation    true;
            outsidePoints    ();
            includeInside    false;
            includeOutside    false;
            includeCut    true;
            nearDistance    -1.0;
            curvature    -100.0;
        }
    }    {
        name    zone39;
        type    cellZoneSet;
        action    new;
        source    surfaceToCell;
        sourceInfo
        {
            file    "constant/triSurface/STL_Files/39.stl";
            //useSurfaceOrientation    true;
            outsidePoints    ();
            includeInside    false;
            includeOutside    false;
            includeCut    true;
            nearDistance    -1.0;
            curvature    -100.0;
        }
    }    {
        name    zone40;
        type    cellZoneSet;
        action    new;
        source    surfaceToCell;
        sourceInfo
        {
            file    "constant/triSurface/STL_Files/40.stl";
            //useSurfaceOrientation    true;
            outsidePoints    ();
            includeInside    false;
            includeOutside    false;
            includeCut    true;
            nearDistance    -1.0;
            curvature    -100.0;
        }
    }    {
        name    zone41;
        type    cellZoneSet;
        action    new;
        source    surfaceToCell;
        sourceInfo
        {
            file    "constant/triSurface/STL_Files/41.stl";
            //useSurfaceOrientation    true;
            outsidePoints    ();
            includeInside    false;
            includeOutside    false;
            includeCut    true;
            nearDistance    -1.0;
            curvature    -100.0;
        }
    }    {
        name    zone42;
        type    cellZoneSet;
        action    new;
        source    surfaceToCell;
        sourceInfo
        {
            file    "constant/triSurface/STL_Files/42.stl";
            //useSurfaceOrientation    true;
            outsidePoints    ();
            includeInside    false;
            includeOutside    false;
            includeCut    true;
            nearDistance    -1.0;
            curvature    -100.0;
        }
    }    {
        name    zone43;
        type    cellZoneSet;
        action    new;
        source    surfaceToCell;
        sourceInfo
        {
            file    "constant/triSurface/STL_Files/43.stl";
            //useSurfaceOrientation    true;
            outsidePoints    ();
            includeInside    false;
            includeOutside    false;
            includeCut    true;
            nearDistance    -1.0;
            curvature    -100.0;
        }
    }    {
        name    zone44;
        type    cellZoneSet;
        action    new;
        source    surfaceToCell;
        sourceInfo
        {
            file    "constant/triSurface/STL_Files/44.stl";
            //useSurfaceOrientation    true;
            outsidePoints    ();
            includeInside    false;
            includeOutside    false;
            includeCut    true;
            nearDistance    -1.0;
            curvature    -100.0;
        }
    }    {
        name    zone45;
        type    cellZoneSet;
        action    new;
        source    surfaceToCell;
        sourceInfo
        {
            file    "constant/triSurface/STL_Files/45.stl";
            //useSurfaceOrientation    true;
            outsidePoints    ();
            includeInside    false;
            includeOutside    false;
            includeCut    true;
            nearDistance    -1.0;
            curvature    -100.0;
        }
    }    {
        name    zone46;
        type    cellZoneSet;
        action    new;
        source    surfaceToCell;
        sourceInfo
        {
            file    "constant/triSurface/STL_Files/46.stl";
            //useSurfaceOrientation    true;
            outsidePoints    ();
            includeInside    false;
            includeOutside    false;
            includeCut    true;
            nearDistance    -1.0;
            curvature    -100.0;
        }
    }    {
        name    zone47;
        type    cellZoneSet;
        action    new;
        source    surfaceToCell;
        sourceInfo
        {
            file    "constant/triSurface/STL_Files/47.stl";
            //useSurfaceOrientation    true;
            outsidePoints    ();
            includeInside    false;
            includeOutside    false;
            includeCut    true;
            nearDistance    -1.0;
            curvature    -100.0;
        }
    }    {
        name    zone48;
        type    cellZoneSet;
        action    new;
        source    surfaceToCell;
        sourceInfo
        {
            file    "constant/triSurface/STL_Files/48.stl";
            //useSurfaceOrientation    true;
            outsidePoints    ();
            includeInside    false;
            includeOutside    false;
            includeCut    true;
            nearDistance    -1.0;
            curvature    -100.0;
        }
    }    {
        name    zone49;
        type    cellZoneSet;
        action    new;
        source    surfaceToCell;
        sourceInfo
        {
            file    "constant/triSurface/STL_Files/49.stl";
            //useSurfaceOrientation    true;
            outsidePoints    ();
            includeInside    false;
            includeOutside    false;
            includeCut    true;
            nearDistance    -1.0;
            curvature    -100.0;
        }
    }    {
        name    zone50;
        type    cellZoneSet;
        action    new;
        source    surfaceToCell;
        sourceInfo
        {
            file    "constant/triSurface/STL_Files/50.stl";
            //useSurfaceOrientation    true;
            outsidePoints    ();
            includeInside    false;
            includeOutside    false;
            includeCut    true;
            nearDistance    -1.0;
            curvature    -100.0;
        }
    }    {
        name    zone51;
        type    cellZoneSet;
        action    new;
        source    surfaceToCell;
        sourceInfo
        {
            file    "constant/triSurface/STL_Files/51.stl";
            //useSurfaceOrientation    true;
            outsidePoints    ();
            includeInside    false;
            includeOutside    false;
            includeCut    true;
            nearDistance    -1.0;
            curvature    -100.0;
        }
    }    {
        name    zone52;
        type    cellZoneSet;
        action    new;
        source    surfaceToCell;
        sourceInfo
        {
            file    "constant/triSurface/STL_Files/52.stl";
            //useSurfaceOrientation    true;
            outsidePoints    ();
            includeInside    false;
            includeOutside    false;
            includeCut    true;
            nearDistance    -1.0;
            curvature    -100.0;
        }
    }    {
        name    zone53;
        type    cellZoneSet;
        action    new;
        source    surfaceToCell;
        sourceInfo
        {
            file    "constant/triSurface/STL_Files/53.stl";
            //useSurfaceOrientation    true;
            outsidePoints    ();
            includeInside    false;
            includeOutside    false;
            includeCut    true;
            nearDistance    -1.0;
            curvature    -100.0;
        }
    }    {
        name    zone54;
        type    cellZoneSet;
        action    new;
        source    surfaceToCell;
        sourceInfo
        {
            file    "constant/triSurface/STL_Files/54.stl";
            //useSurfaceOrientation    true;
            outsidePoints    ();
            includeInside    false;
            includeOutside    false;
            includeCut    true;
            nearDistance    -1.0;
            curvature    -100.0;
        }
    }    {
        name    zone55;
        type    cellZoneSet;
        action    new;
        source    surfaceToCell;
        sourceInfo
        {
            file    "constant/triSurface/STL_Files/55.stl";
            //useSurfaceOrientation    true;
            outsidePoints    ();
            includeInside    false;
            includeOutside    false;
            includeCut    true;
            nearDistance    -1.0;
            curvature    -100.0;
        }
    }    {
        name    zone56;
        type    cellZoneSet;
        action    new;
        source    surfaceToCell;
        sourceInfo
        {
            file    "constant/triSurface/STL_Files/56.stl";
            //useSurfaceOrientation    true;
            outsidePoints    ();
            includeInside    false;
            includeOutside    false;
            includeCut    true;
            nearDistance    -1.0;
            curvature    -100.0;
        }
    }    {
        name    zone57;
        type    cellZoneSet;
        action    new;
        source    surfaceToCell;
        sourceInfo
        {
            file    "constant/triSurface/STL_Files/57.stl";
            //useSurfaceOrientation    true;
            outsidePoints    ();
            includeInside    false;
            includeOutside    false;
            includeCut    true;
            nearDistance    -1.0;
            curvature    -100.0;
        }
    }    {
        name    zone58;
        type    cellZoneSet;
        action    new;
        source    surfaceToCell;
        sourceInfo
        {
            file    "constant/triSurface/STL_Files/58.stl";
            //useSurfaceOrientation    true;
            outsidePoints    ();
            includeInside    false;
            includeOutside    false;
            includeCut    true;
            nearDistance    -1.0;
            curvature    -100.0;
        }
    }    {
        name    zone59;
        type    cellZoneSet;
        action    new;
        source    surfaceToCell;
        sourceInfo
        {
            file    "constant/triSurface/STL_Files/59.stl";
            //useSurfaceOrientation    true;
            outsidePoints    ();
            includeInside    false;
            includeOutside    false;
            includeCut    true;
            nearDistance    -1.0;
            curvature    -100.0;
        }
    }    {
        name    zone60;
        type    cellZoneSet;
        action    new;
        source    surfaceToCell;
        sourceInfo
        {
            file    "constant/triSurface/STL_Files/60.stl";
            //useSurfaceOrientation    true;
            outsidePoints    ();
            includeInside    false;
            includeOutside    false;
            includeCut    true;
            nearDistance    -1.0;
            curvature    -100.0;
        }
    }    {
        name    zone61;
        type    cellZoneSet;
        action    new;
        source    surfaceToCell;
        sourceInfo
        {
            file    "constant/triSurface/STL_Files/61.stl";
            //useSurfaceOrientation    true;
            outsidePoints    ();
            includeInside    false;
            includeOutside    false;
            includeCut    true;
            nearDistance    -1.0;
            curvature    -100.0;
        }
    }    {
        name    zone62;
        type    cellZoneSet;
        action    new;
        source    surfaceToCell;
        sourceInfo
        {
            file    "constant/triSurface/STL_Files/62.stl";
            //useSurfaceOrientation    true;
            outsidePoints    ();
            includeInside    false;
            includeOutside    false;
            includeCut    true;
            nearDistance    -1.0;
            curvature    -100.0;
        }
    }    {
        name    zone63;
        type    cellZoneSet;
        action    new;
        source    surfaceToCell;
        sourceInfo
        {
            file    "constant/triSurface/STL_Files/63.stl";
            //useSurfaceOrientation    true;
            outsidePoints    ();
            includeInside    false;