FoamFile
{
    version    2.0;
    format    ascii;
    class    dictionary;
    location    "system";
    object    geometricCalcDict;
}
//*******************************************************//
zone0{e1 ( 1.126124e-01 -0.000000e+00 9.936390e-01 ); e2 ( -9.936390e-01 0.000000e+00 1.126124e-01 );}

zone1{e1 ( 1.124753e-01 -0.000000e+00 9.924288e-01 ); e2 ( -9.933598e-01 2.370595e-02 1.125808e-01 );}

zone2{e1 ( 1.120668e-01 -0.000000e+00 9.888246e-01 ); e2 ( -9.925234e-01 4.737199e-02 1.124860e-01 );}

zone3{e1 ( 1.113958e-01 -0.000000e+00 9.829039e-01 ); e2 ( -9.911343e-01 7.095854e-02 1.123286e-01 );}

zone4{e1 ( 1.104763e-01 -0.000000e+00 9.747907e-01 ); e2 ( -9.891992e-01 9.442667e-02 1.121093e-01 );}

zone5{e1 ( 1.093269e-01 -0.000000e+00 9.646489e-01 ); e2 ( -9.867279e-01 1.177384e-01 1.118292e-01 );}

zone6{e1 ( 1.079696e-01 -0.000000e+00 9.526728e-01 ); e2 ( -9.837323e-01 1.408572e-01 1.114897e-01 );}

zone7{e1 ( 1.064289e-01 -0.000000e+00 9.390784e-01 ); e2 ( -9.802271e-01 1.637479e-01 1.110924e-01 );}

zone8{e1 ( 1.047306e-01 -0.000000e+00 9.240931e-01 ); e2 ( -9.762287e-01 1.863771e-01 1.106393e-01 );}

zone9{e1 ( 1.029007e-01 -0.000000e+00 9.079474e-01 ); e2 ( -9.717559e-01 2.087135e-01 1.101323e-01 );}

zone10{e1 ( 3.083447e-01 4.033660e-01 7.742993e-01 ); e2 ( -9.614695e-01 2.523940e-01 1.089665e-01 );}

zone11{e1 ( 4.783014e-01 8.746083e-01 0.000000e+00 ); e2 ( -9.635310e-01 2.529352e-01 8.736015e-02 );}

zone12{e1 ( 4.789607e-01 8.758138e-01 0.000000e+00 ); e2 ( -9.651436e-01 2.533585e-01 6.562977e-02 );}

zone13{e1 ( 4.794333e-01 8.766780e-01 0.000000e+00 ); e2 ( -9.663004e-01 2.536622e-01 4.380562e-02 );}

zone14{e1 ( 4.797175e-01 8.771977e-01 0.000000e+00 ); e2 ( -9.669965e-01 2.538449e-01 2.191859e-02 );}

zone15{e1 ( 4.798123e-01 8.773711e-01 0.000000e+00 ); e2 ( -9.672289e-01 2.539059e-01 0.000000e+00 );}

zone16{e1 ( 4.797175e-01 8.771977e-01 0.000000e+00 ); e2 ( -9.669965e-01 2.538449e-01 -2.191859e-02 );}

zone17{e1 ( 4.794333e-01 8.766780e-01 0.000000e+00 ); e2 ( -9.663004e-01 2.536622e-01 -4.380562e-02 );}

zone18{e1 ( 4.789607e-01 8.758138e-01 0.000000e+00 ); e2 ( -9.651436e-01 2.533585e-01 -6.562977e-02 );}

zone19{e1 ( 4.783014e-01 8.746083e-01 0.000000e+00 ); e2 ( -9.635310e-01 2.529352e-01 -8.736015e-02 );}

zone20{e1 ( 4.129835e-01 6.298822e-01 -6.045593e-01 ); e2 ( -9.614695e-01 2.523940e-01 -1.089666e-01 );}

zone21{e1 ( 1.009649e-01 0.000000e+00 -8.908667e-01 ); e2 ( -9.668289e-01 2.307281e-01 -1.095739e-01 );}

zone22{e1 ( 1.029007e-01 0.000000e+00 -9.079474e-01 ); e2 ( -9.717559e-01 2.087135e-01 -1.101323e-01 );}

zone23{e1 ( 1.047306e-01 0.000000e+00 -9.240931e-01 ); e2 ( -9.762287e-01 1.863771e-01 -1.106393e-01 );}

zone24{e1 ( 1.064289e-01 0.000000e+00 -9.390784e-01 ); e2 ( -9.802271e-01 1.637479e-01 -1.110924e-01 );}

zone25{e1 ( 1.079696e-01 0.000000e+00 -9.526728e-01 ); e2 ( -9.837323e-01 1.408572e-01 -1.114897e-01 );}

zone26{e1 ( 1.093269e-01 0.000000e+00 -9.646489e-01 ); e2 ( -9.867279e-01 1.177384e-01 -1.118292e-01 );}

zone27{e1 ( 1.104763e-01 0.000000e+00 -9.747907e-01 ); e2 ( -9.891992e-01 9.442667e-02 -1.121093e-01 );}

zone28{e1 ( 1.113958e-01 0.000000e+00 -9.829039e-01 ); e2 ( -9.911343e-01 7.095854e-02 -1.123286e-01 );}

zone29{e1 ( 1.120668e-01 0.000000e+00 -9.888246e-01 ); e2 ( -9.925234e-01 4.737199e-02 -1.124860e-01 );}

zone30{e1 ( 1.124753e-01 0.000000e+00 -9.924288e-01 ); e2 ( -9.933598e-01 2.370595e-02 -1.125808e-01 );}

zone31{e1 ( 1.126124e-01 0.000000e+00 -9.936390e-01 ); e2 ( -9.936390e-01 -2.991623e-18 -1.126124e-01 );}

zone32{e1 ( 1.124753e-01 0.000000e+00 -9.924288e-01 ); e2 ( -9.933598e-01 -2.370595e-02 -1.125808e-01 );}

zone33{e1 ( 1.120668e-01 0.000000e+00 -9.888246e-01 ); e2 ( -9.925234e-01 -4.737199e-02 -1.124860e-01 );}

zone34{e1 ( 1.113958e-01 0.000000e+00 -9.829039e-01 ); e2 ( -9.911343e-01 -7.095854e-02 -1.123286e-01 );}

zone35{e1 ( 1.104763e-01 0.000000e+00 -9.747907e-01 ); e2 ( -9.891992e-01 -9.442667e-02 -1.121093e-01 );}

zone36{e1 ( 1.093269e-01 0.000000e+00 -9.646489e-01 ); e2 ( -9.867279e-01 -1.177384e-01 -1.118292e-01 );}

zone37{e1 ( 1.079696e-01 0.000000e+00 -9.526728e-01 ); e2 ( -9.837323e-01 -1.408572e-01 -1.114897e-01 );}

zone38{e1 ( 1.064289e-01 0.000000e+00 -9.390784e-01 ); e2 ( -9.802271e-01 -1.637479e-01 -1.110924e-01 );}

zone39{e1 ( 1.047306e-01 0.000000e+00 -9.240931e-01 ); e2 ( -9.762287e-01 -1.863771e-01 -1.106393e-01 );}

zone40{e1 ( 2.501121e-01 -2.864297e-01 -8.247433e-01 ); e2 ( -9.614695e-01 -2.523940e-01 -1.089665e-01 );}

zone41{e1 ( 4.783014e-01 -8.746083e-01 0.000000e+00 ); e2 ( -9.635310e-01 -2.529352e-01 -8.736015e-02 );}

zone42{e1 ( 4.789607e-01 -8.758138e-01 0.000000e+00 ); e2 ( -9.651436e-01 -2.533585e-01 -6.562977e-02 );}

zone43{e1 ( 4.794333e-01 -8.766780e-01 0.000000e+00 ); e2 ( -9.663004e-01 -2.536622e-01 -4.380562e-02 );}

zone44{e1 ( 4.797175e-01 -8.771977e-01 0.000000e+00 ); e2 ( -9.669965e-01 -2.538449e-01 -2.191859e-02 );}

zone45{e1 ( 4.798123e-01 -8.773711e-01 0.000000e+00 ); e2 ( -9.672289e-01 -2.539059e-01 0.000000e+00 );}

zone46{e1 ( 4.797175e-01 -8.771977e-01 0.000000e+00 ); e2 ( -9.669965e-01 -2.538449e-01 2.191859e-02 );}

zone47{e1 ( 4.794333e-01 -8.766780e-01 0.000000e+00 ); e2 ( -9.663004e-01 -2.536622e-01 4.380562e-02 );}

zone48{e1 ( 4.789607e-01 -8.758138e-01 0.000000e+00 ); e2 ( -9.651436e-01 -2.533585e-01 6.562977e-02 );}

zone49{e1 ( 4.783014e-01 -8.746083e-01 0.000000e+00 ); e2 ( -9.635310e-01 -2.529352e-01 8.736015e-02 );}

zone50{e1 ( 4.129835e-01 -6.298822e-01 6.045593e-01 ); e2 ( -9.614695e-01 -2.523940e-01 1.089666e-01 );}

zone51{e1 ( 1.009649e-01 -0.000000e+00 8.908667e-01 ); e2 ( -9.668289e-01 -2.307281e-01 1.095739e-01 );}

zone52{e1 ( 1.029007e-01 -0.000000e+00 9.079474e-01 ); e2 ( -9.717559e-01 -2.087135e-01 1.101323e-01 );}

zone53{e1 ( 1.047306e-01 -0.000000e+00 9.240931e-01 ); e2 ( -9.762287e-01 -1.863771e-01 1.106393e-01 );}

zone54{e1 ( 1.064289e-01 -0.000000e+00 9.390784e-01 ); e2 ( -9.802271e-01 -1.637479e-01 1.110924e-01 );}

zone55{e1 ( 1.079696e-01 -0.000000e+00 9.526728e-01 ); e2 ( -9.837323e-01 -1.408572e-01 1.114897e-01 );}

zone56{e1 ( 1.093269e-01 -0.000000e+00 9.646489e-01 ); e2 ( -9.867279e-01 -1.177384e-01 1.118292e-01 );}

zone57{e1 ( 1.104763e-01 -0.000000e+00 9.747907e-01 ); e2 ( -9.891992e-01 -9.442667e-02 1.121093e-01 );}

zone58{e1 ( 1.113958e-01 -0.000000e+00 9.829039e-01 ); e2 ( -9.911343e-01 -7.095854e-02 1.123286e-01 );}

zone59{e1 ( 1.120668e-01 -0.000000e+00 9.888246e-01 ); e2 ( -9.925234e-01 -4.737199e-02 1.124860e-01 );}

zone60{e1 ( 1.126124e-01 -0.000000e+00 9.936390e-01 ); e2 ( 9.936390e-01 0.000000e+00 -1.126123e-01 );}

zone61{e1 ( 1.124753e-01 -0.000000e+00 9.924288e-01 ); e2 ( 9.924288e-01 -4.933949e-02 -1.124751e-01 );}

zone62{e1 ( 1.120668e-01 -0.000000e+00 9.888246e-01 ); e2 ( 9.888246e-01 -9.832060e-02 -1.120667e-01 );}

zone63{e1 ( 1.113958e-01 -0.000000e+00 9.829039e-01 ); e2 ( 9.829039e-01 -1.465978e-01 -1.113957e-01 );}

zone64{e1 ( 1.104763e-01 -0.000000e+00 9.747907e-01 ); e2 ( 9.747908e-01 -1.938504e-01 -1.104762e-01 );}

zone65{e1 ( 1.093269e-01 -0.000000e+00 9.646489e-01 ); e2 ( 9.646489e-01 -2.397919e-01 -1.093268e-01 );}

zone66{e1 ( 1.079696e-01 -0.000000e+00 9.526728e-01 ); e2 ( 9.526728e-01 -2.841779e-01 -1.079695e-01 );}

zone67{e1 ( 1.064289e-01 -0.000000e+00 9.390784e-01 ); e2 ( 9.390784e-01 -3.268099e-01 -1.064288e-01 );}

zone68{e1 ( 1.047306e-01 -0.000000e+00 9.240931e-01 ); e2 ( 9.240931e-01 -3.675369e-01 -1.047304e-01 );}

zone69{e1 ( 1.029007e-01 -0.000000e+00 9.079474e-01 ); e2 ( 9.079474e-01 -4.062548e-01 -1.029006e-01 );}

zone70{e1 ( 3.083447e-01 4.033660e-01 7.742993e-01 ); e2 ( 8.730658e-01 -4.774575e-01 -9.894719e-02 );}

zone71{e1 ( 4.783014e-01 8.746083e-01 0.000000e+00 ); e2 ( 8.746086e-01 -4.783009e-01 -7.929778e-02 );}

zone72{e1 ( 4.789607e-01 8.758138e-01 0.000000e+00 ); e2 ( 8.758141e-01 -4.789601e-01 -5.955531e-02 );}

zone73{e1 ( 4.794333e-01 8.766780e-01 0.000000e+00 ); e2 ( 8.766783e-01 -4.794327e-01 -3.974272e-02 );}

zone74{e1 ( 4.797175e-01 8.771977e-01 0.000000e+00 ); e2 ( 8.771980e-01 -4.797170e-01 -1.988314e-02 );}

zone75{e1 ( 4.798123e-01 8.773711e-01 0.000000e+00 ); e2 ( 8.773714e-01 -4.798118e-01 0.000000e+00 );}

zone76{e1 ( 4.797175e-01 8.771977e-01 0.000000e+00 ); e2 ( 8.771980e-01 -4.797170e-01 1.988314e-02 );}

zone77{e1 ( 4.794333e-01 8.766780e-01 0.000000e+00 ); e2 ( 8.766783e-01 -4.794327e-01 3.974272e-02 );}

zone78{e1 ( 4.789607e-01 8.758138e-01 0.000000e+00 ); e2 ( 8.758141e-01 -4.789601e-01 5.955531e-02 );}

zone79{e1 ( 4.783014e-01 8.746083e-01 0.000000e+00 ); e2 ( 8.746086e-01 -4.783009e-01 7.929778e-02 );}

zone80{e1 ( 4.129835e-01 6.298822e-01 -6.045593e-01 ); e2 ( 8.730658e-01 -4.774573e-01 9.894719e-02 );}

zone81{e1 ( 1.009649e-01 0.000000e+00 -8.908667e-01 ); e2 ( 8.908668e-01 -4.429024e-01 1.009648e-01 );}

zone82{e1 ( 1.029007e-01 0.000000e+00 -9.079474e-01 ); e2 ( 9.079474e-01 -4.062548e-01 1.029006e-01 );}

zone83{e1 ( 1.047306e-01 0.000000e+00 -9.240931e-01 ); e2 ( 9.240931e-01 -3.675369e-01 1.047304e-01 );}

zone84{e1 ( 1.064289e-01 0.000000e+00 -9.390784e-01 ); e2 ( 9.390784e-01 -3.268099e-01 1.064288e-01 );}

zone85{e1 ( 1.079696e-01 0.000000e+00 -9.526728e-01 ); e2 ( 9.526728e-01 -2.841779e-01 1.079695e-01 );}

zone86{e1 ( 1.093269e-01 0.000000e+00 -9.646489e-01 ); e2 ( 9.646489e-01 -2.397919e-01 1.093268e-01 );}

zone87{e1 ( 1.104763e-01 0.000000e+00 -9.747907e-01 ); e2 ( 9.747908e-01 -1.938504e-01 1.104762e-01 );}

zone88{e1 ( 1.113958e-01 0.000000e+00 -9.829039e-01 ); e2 ( 9.829039e-01 -1.465978e-01 1.113957e-01 );}

zone89{e1 ( 1.120668e-01 0.000000e+00 -9.888246e-01 ); e2 ( 9.888246e-01 -9.832060e-02 1.120667e-01 );}

zone90{e1 ( 1.124753e-01 0.000000e+00 -9.924288e-01 ); e2 ( 9.924288e-01 -4.933949e-02 1.124751e-01 );}

zone91{e1 ( 1.126124e-01 0.000000e+00 -9.936390e-01 ); e2 ( 9.936390e-01 0.000000e+00 1.126123e-01 );}

zone92{e1 ( 1.124753e-01 0.000000e+00 -9.924288e-01 ); e2 ( 9.924288e-01 4.933949e-02 1.124751e-01 );}

zone93{e1 ( 1.120668e-01 0.000000e+00 -9.888246e-01 ); e2 ( 9.888246e-01 9.832060e-02 1.120667e-01 );}

zone94{e1 ( 1.113958e-01 0.000000e+00 -9.829039e-01 ); e2 ( 9.829039e-01 1.465978e-01 1.113957e-01 );}

zone95{e1 ( 1.104763e-01 0.000000e+00 -9.747907e-01 ); e2 ( 9.747908e-01 1.938504e-01 1.104762e-01 );}

zone96{e1 ( 1.093269e-01 0.000000e+00 -9.646489e-01 ); e2 ( 9.646489e-01 2.397919e-01 1.093268e-01 );}

zone97{e1 ( 1.079696e-01 0.000000e+00 -9.526728e-01 ); e2 ( 9.526728e-01 2.841779e-01 1.079695e-01 );}

zone98{e1 ( 1.064289e-01 0.000000e+00 -9.390784e-01 ); e2 ( 9.390784e-01 3.268099e-01 1.064288e-01 );}

zone99{e1 ( 1.047306e-01 0.000000e+00 -9.240931e-01 ); e2 ( 9.240931e-01 3.675369e-01 1.047304e-01 );}

zone100{e1 ( 2.501121e-01 -2.864297e-01 -8.247433e-01 ); e2 ( 8.730657e-01 4.774575e-01 9.894722e-02 );}

zone101{e1 ( 4.783014e-01 -8.746083e-01 0.000000e+00 ); e2 ( 8.746086e-01 4.783009e-01 7.929778e-02 );}

zone102{e1 ( 4.789607e-01 -8.758138e-01 0.000000e+00 ); e2 ( 8.758141e-01 4.789601e-01 5.955531e-02 );}

zone103{e1 ( 4.794333e-01 -8.766780e-01 0.000000e+00 ); e2 ( 8.766783e-01 4.794327e-01 3.974272e-02 );}

zone104{e1 ( 4.797175e-01 -8.771977e-01 0.000000e+00 ); e2 ( 8.771980e-01 4.797170e-01 1.988314e-02 );}

zone105{e1 ( 4.798123e-01 -8.773711e-01 0.000000e+00 ); e2 ( 8.773714e-01 4.798118e-01 0.000000e+00 );}

zone106{e1 ( 4.797175e-01 -8.771977e-01 0.000000e+00 ); e2 ( 8.771980e-01 4.797170e-01 -1.988314e-02 );}

zone107{e1 ( 4.794333e-01 -8.766780e-01 0.000000e+00 ); e2 ( 8.766783e-01 4.794327e-01 -3.974272e-02 );}

zone108{e1 ( 4.789607e-01 -8.758138e-01 0.000000e+00 ); e2 ( 8.758141e-01 4.789601e-01 -5.955531e-02 );}

zone109{e1 ( 4.783014e-01 -8.746083e-01 0.000000e+00 ); e2 ( 8.746086e-01 4.783009e-01 -7.929778e-02 );}

zone110{e1 ( 4.129835e-01 -6.298822e-01 6.045593e-01 ); e2 ( 8.730658e-01 4.774573e-01 -9.894719e-02 );}

zone111{e1 ( 1.009649e-01 -0.000000e+00 8.908667e-01 ); e2 ( 8.908668e-01 4.429024e-01 -1.009648e-01 );}

zone112{e1 ( 1.029007e-01 -0.000000e+00 9.079474e-01 ); e2 ( 9.079474e-01 4.062548e-01 -1.029006e-01 );}

zone113{e1 ( 1.047306e-01 -0.000000e+00 9.240931e-01 ); e2 ( 9.240931e-01 3.675369e-01 -1.047304e-01 );}

zone114{e1 ( 1.064289e-01 -0.000000e+00 9.390784e-01 ); e2 ( 9.390784e-01 3.268099e-01 -1.064288e-01 );}

zone115{e1 ( 1.079696e-01 -0.000000e+00 9.526728e-01 ); e2 ( 9.526728e-01 2.841779e-01 -1.079695e-01 );}

zone116{e1 ( 1.093269e-01 -0.000000e+00 9.646489e-01 ); e2 ( 9.646489e-01 2.397919e-01 -1.093268e-01 );}

zone117{e1 ( 1.104763e-01 -0.000000e+00 9.747907e-01 ); e2 ( 9.747908e-01 1.938504e-01 -1.104762e-01 );}

zone118{e1 ( 1.113958e-01 -0.000000e+00 9.829039e-01 ); e2 ( 9.829039e-01 1.465978e-01 -1.113957e-01 );}

zone119{e1 ( 1.120668e-01 -0.000000e+00 9.888246e-01 ); e2 ( 9.888246e-01 9.832060e-02 -1.120667e-01 );}

zone120{e1 ( 1.126124e-01 -0.000000e+00 9.936390e-01 ); e2 ( 9.936390e-01 0.000000e+00 -1.126124e-01 );}

zone121{e1 ( 1.124753e-01 -0.000000e+00 9.924288e-01 ); e2 ( 9.924288e-01 -4.933950e-02 -1.124753e-01 );}

zone122{e1 ( 1.120668e-01 -0.000000e+00 9.888246e-01 ); e2 ( 9.888246e-01 -9.832063e-02 -1.120668e-01 );}

zone123{e1 ( 1.113958e-01 -0.000000e+00 9.829039e-01 ); e2 ( 9.829039e-01 -1.465979e-01 -1.113958e-01 );}

zone124{e1 ( 1.104763e-01 -0.000000e+00 9.747907e-01 ); e2 ( 9.747907e-01 -1.938504e-01 -1.104763e-01 );}

zone125{e1 ( 1.093269e-01 -0.000000e+00 9.646489e-01 ); e2 ( 9.646489e-01 -2.397920e-01 -1.093269e-01 );}

zone126{e1 ( 1.079696e-01 -0.000000e+00 9.526728e-01 ); e2 ( 9.526728e-01 -2.841780e-01 -1.079696e-01 );}

zone127{e1 ( 1.064289e-01 -0.000000e+00 9.390784e-01 ); e2 ( 9.390784e-01 -3.268099e-01 -1.064289e-01 );}

zone128{e1 ( 1.047306e-01 -0.000000e+00 9.240931e-01 ); e2 ( 9.240931e-01 -3.675370e-01 -1.047306e-01 );}

zone129{e1 ( 1.029007e-01 -0.000000e+00 9.079474e-01 ); e2 ( 9.079474e-01 -4.062549e-01 -1.029007e-01 );}

zone130{e1 ( 3.112788e-01 4.093875e-01 7.711325e-01 ); e2 ( 8.730656e-01 -4.774577e-01 -9.894743e-02 );}

zone131{e1 ( 4.783014e-01 8.746083e-01 0.000000e+00 ); e2 ( 8.746083e-01 -4.783014e-01 -7.929782e-02 );}

zone132{e1 ( 4.789607e-01 8.758138e-01 0.000000e+00 ); e2 ( 8.758138e-01 -4.789607e-01 -5.955534e-02 );}

zone133{e1 ( 4.794333e-01 8.766780e-01 0.000000e+00 ); e2 ( 8.766780e-01 -4.794333e-01 -3.974273e-02 );}

zone134{e1 ( 4.797175e-01 8.771977e-01 0.000000e+00 ); e2 ( 8.771977e-01 -4.797175e-01 -1.988315e-02 );}

zone135{e1 ( 4.798123e-01 8.773711e-01 0.000000e+00 ); e2 ( 8.773711e-01 -4.798123e-01 0.000000e+00 );}

zone136{e1 ( 4.797175e-01 8.771977e-01 0.000000e+00 ); e2 ( 8.771977e-01 -4.797175e-01 1.988315e-02 );}

zone137{e1 ( 4.794333e-01 8.766780e-01 0.000000e+00 ); e2 ( 8.766780e-01 -4.794333e-01 3.974273e-02 );}

zone138{e1 ( 4.789607e-01 8.758138e-01 0.000000e+00 ); e2 ( 8.758138e-01 -4.789607e-01 5.955534e-02 );}

zone139{e1 ( 4.783014e-01 8.746083e-01 0.000000e+00 ); e2 ( 8.746083e-01 -4.783014e-01 7.929782e-02 );}

zone140{e1 ( 4.154137e-01 6.355646e-01 -5.985827e-01 ); e2 ( 8.730656e-01 -4.774577e-01 9.894743e-02 );}

zone141{e1 ( 1.009649e-01 0.000000e+00 -8.908667e-01 ); e2 ( 8.908667e-01 -4.429025e-01 1.009649e-01 );}

zone142{e1 ( 1.029007e-01 0.000000e+00 -9.079474e-01 ); e2 ( 9.079474e-01 -4.062549e-01 1.029007e-01 );}

zone143{e1 ( 1.047306e-01 0.000000e+00 -9.240931e-01 ); e2 ( 9.240931e-01 -3.675370e-01 1.047306e-01 );}

zone144{e1 ( 1.064289e-01 0.000000e+00 -9.390784e-01 ); e2 ( 9.390784e-01 -3.268099e-01 1.064289e-01 );}

zone145{e1 ( 1.079696e-01 0.000000e+00 -9.526728e-01 ); e2 ( 9.526728e-01 -2.841780e-01 1.079696e-01 );}

zone146{e1 ( 1.093269e-01 0.000000e+00 -9.646489e-01 ); e2 ( 9.646489e-01 -2.397920e-01 1.093269e-01 );}

zone147{e1 ( 1.104763e-01 0.000000e+00 -9.747907e-01 ); e2 ( 9.747907e-01 -1.938504e-01 1.104763e-01 );}

zone148{e1 ( 1.113958e-01 0.000000e+00 -9.829039e-01 ); e2 ( 9.829039e-01 -1.465979e-01 1.113958e-01 );}

zone149{e1 ( 1.120668e-01 0.000000e+00 -9.888246e-01 ); e2 ( 9.888246e-01 -9.832063e-02 1.120668e-01 );}

zone150{e1 ( 1.124753e-01 0.000000e+00 -9.924288e-01 ); e2 ( 9.924288e-01 -4.933950e-02 1.124753e-01 );}

zone151{e1 ( 1.126124e-01 0.000000e+00 -9.936390e-01 ); e2 ( 9.936390e-01 0.000000e+00 1.126124e-01 );}

zone152{e1 ( 1.124753e-01 0.000000e+00 -9.924288e-01 ); e2 ( 9.924288e-01 4.933950e-02 1.124753e-01 );}

zone153{e1 ( 1.120668e-01 0.000000e+00 -9.888246e-01 ); e2 ( 9.888246e-01 9.832063e-02 1.120668e-01 );}

zone154{e1 ( 1.113958e-01 0.000000e+00 -9.829039e-01 ); e2 ( 9.829039e-01 1.465979e-01 1.113958e-01 );}

zone155{e1 ( 1.104763e-01 0.000000e+00 -9.747907e-01 ); e2 ( 9.747907e-01 1.938504e-01 1.104763e-01 );}

zone156{e1 ( 1.093269e-01 0.000000e+00 -9.646489e-01 ); e2 ( 9.646489e-01 2.397920e-01 1.093269e-01 );}

zone157{e1 ( 1.079696e-01 0.000000e+00 -9.526728e-01 ); e2 ( 9.526728e-01 2.841780e-01 1.079696e-01 );}

zone158{e1 ( 1.064289e-01 0.000000e+00 -9.390784e-01 ); e2 ( 9.390784e-01 3.268099e-01 1.064289e-01 );}

zone159{e1 ( 1.047306e-01 0.000000e+00 -9.240931e-01 ); e2 ( 9.240931e-01 3.675370e-01 1.047306e-01 );}

zone160{e1 ( 2.525798e-01 -2.912955e-01 -8.230373e-01 ); e2 ( 8.730656e-01 4.774577e-01 9.894743e-02 );}

zone161{e1 ( 4.783014e-01 -8.746083e-01 0.000000e+00 ); e2 ( 8.746083e-01 4.783014e-01 7.929782e-02 );}

zone162{e1 ( 4.789607e-01 -8.758138e-01 0.000000e+00 ); e2 ( 8.758138e-01 4.789607e-01 5.955534e-02 );}

zone163{e1 ( 4.794333e-01 -8.766780e-01 0.000000e+00 ); e2 ( 8.766780e-01 4.794333e-01 3.974273e-02 );}

zone164{e1 ( 4.797175e-01 -8.771977e-01 0.000000e+00 ); e2 ( 8.771977e-01 4.797175e-01 1.988315e-02 );}

zone165{e1 ( 4.798123e-01 -8.773711e-01 0.000000e+00 ); e2 ( 8.773711e-01 4.798123e-01 0.000000e+00 );}

zone166{e1 ( 4.797175e-01 -8.771977e-01 0.000000e+00 ); e2 ( 8.771977e-01 4.797175e-01 -1.988315e-02 );}

zone167{e1 ( 4.794333e-01 -8.766780e-01 0.000000e+00 ); e2 ( 8.766780e-01 4.794333e-01 -3.974273e-02 );}

zone168{e1 ( 4.789607e-01 -8.758138e-01 0.000000e+00 ); e2 ( 8.758138e-01 4.789607e-01 -5.955534e-02 );}

zone169{e1 ( 4.783014e-01 -8.746083e-01 0.000000e+00 ); e2 ( 8.746083e-01 4.783014e-01 -7.929782e-02 );}

zone170{e1 ( 4.154137e-01 -6.355646e-01 5.985827e-01 ); e2 ( 8.730656e-01 4.774577e-01 -9.894743e-02 );}

zone171{e1 ( 1.009649e-01 -0.000000e+00 8.908667e-01 ); e2 ( 8.908667e-01 4.429025e-01 -1.009649e-01 );}

zone172{e1 ( 1.029007e-01 -0.000000e+00 9.079474e-01 ); e2 ( 9.079474e-01 4.062549e-01 -1.029007e-01 );}

zone173{e1 ( 1.047306e-01 -0.000000e+00 9.240931e-01 ); e2 ( 9.240931e-01 3.675370e-01 -1.047306e-01 );}

zone174{e1 ( 1.064289e-01 -0.000000e+00 9.390784e-01 ); e2 ( 9.390784e-01 3.268099e-01 -1.064289e-01 );}

zone175{e1 ( 1.079696e-01 -0.000000e+00 9.526728e-01 ); e2 ( 9.526728e-01 2.841780e-01 -1.079696e-01 );}

zone176{e1 ( 1.093269e-01 -0.000000e+00 9.646489e-01 ); e2 ( 9.646489e-01 2.397920e-01 -1.093269e-01 );}

zone177{e1 ( 1.104763e-01 -0.000000e+00 9.747907e-01 ); e2 ( 9.747907e-01 1.938504e-01 -1.104763e-01 );}

zone178{e1 ( 1.113958e-01 -0.000000e+00 9.829039e-01 ); e2 ( 9.829039e-01 1.465979e-01 -1.113958e-01 );}

zone179{e1 ( 1.120668e-01 -0.000000e+00 9.888246e-01 ); e2 ( 9.888246e-01 9.832063e-02 -1.120668e-01 );}

zone180{e1 ( 1.126124e-01 -0.000000e+00 9.936390e-01 ); e2 ( 9.936390e-01 0.000000e+00 -1.126124e-01 );}

zone181{e1 ( 1.124753e-01 -0.000000e+00 9.924288e-01 ); e2 ( 9.924288e-01 -4.933950e-02 -1.124753e-01 );}

zone182{e1 ( 1.120668e-01 -0.000000e+00 9.888246e-01 ); e2 ( 9.888246e-01 -9.832063e-02 -1.120668e-01 );}

zone183{e1 ( 1.113958e-01 -0.000000e+00 9.829039e-01 ); e2 ( 9.829039e-01 -1.465979e-01 -1.113958e-01 );}

zone184{e1 ( 1.104763e-01 -0.000000e+00 9.747907e-01 ); e2 ( 9.747907e-01 -1.938504e-01 -1.104763e-01 );}

zone185{e1 ( 1.093269e-01 -0.000000e+00 9.646489e-01 ); e2 ( 9.646489e-01 -2.397920e-01 -1.093269e-01 );}

zone186{e1 ( 1.079696e-01 -0.000000e+00 9.526728e-01 ); e2 ( 9.526728e-01 -2.841780e-01 -1.079696e-01 );}

zone187{e1 ( 1.064289e-01 -0.000000e+00 9.390784e-01 ); e2 ( 9.390784e-01 -3.268099e-01 -1.064289e-01 );}

zone188{e1 ( 1.047306e-01 -0.000000e+00 9.240931e-01 ); e2 ( 9.240931e-01 -3.675370e-01 -1.047306e-01 );}

zone189{e1 ( 1.029007e-01 -0.000000e+00 9.079474e-01 ); e2 ( 9.079474e-01 -4.062549e-01 -1.029007e-01 );}

zone190{e1 ( 3.143718e-01 4.157503e-01 7.677208e-01 ); e2 ( 8.730656e-01 -4.774577e-01 -9.894743e-02 );}

zone191{e1 ( 4.783014e-01 8.746083e-01 0.000000e+00 ); e2 ( 8.746083e-01 -4.783014e-01 -7.929782e-02 );}

zone192{e1 ( 4.789607e-01 8.758138e-01 0.000000e+00 ); e2 ( 8.758138e-01 -4.789607e-01 -5.955534e-02 );}

zone193{e1 ( 4.794333e-01 8.766780e-01 0.000000e+00 ); e2 ( 8.766780e-01 -4.794333e-01 -3.974273e-02 );}

zone194{e1 ( 4.797175e-01 8.771977e-01 0.000000e+00 ); e2 ( 8.771977e-01 -4.797175e-01 -1.988315e-02 );}

zone195{e1 ( 4.798123e-01 8.773711e-01 0.000000e+00 ); e2 ( 8.773711e-01 -4.798123e-01 0.000000e+00 );}

zone196{e1 ( 4.797175e-01 8.771977e-01 0.000000e+00 ); e2 ( 8.771977e-01 -4.797175e-01 1.988315e-02 );}

zone197{e1 ( 4.794333e-01 8.766780e-01 0.000000e+00 ); e2 ( 8.766780e-01 -4.794333e-01 3.974273e-02 );}

zone198{e1 ( 4.789607e-01 8.758138e-01 0.000000e+00 ); e2 ( 8.758138e-01 -4.789607e-01 5.955534e-02 );}

zone199{e1 ( 4.783014e-01 8.746083e-01 0.000000e+00 ); e2 ( 8.746083e-01 -4.783014e-01 7.929782e-02 );}

zone200{e1 ( 4.179220e-01 6.414617e-01 -5.922587e-01 ); e2 ( 8.730656e-01 -4.774577e-01 9.894743e-02 );}

zone201{e1 ( 1.009649e-01 0.000000e+00 -8.908667e-01 ); e2 ( 8.908667e-01 -4.429025e-01 1.009649e-01 );}

zone202{e1 ( 1.029007e-01 0.000000e+00 -9.079474e-01 ); e2 ( 9.079474e-01 -4.062549e-01 1.029007e-01 );}

zone203{e1 ( 1.047306e-01 0.000000e+00 -9.240931e-01 ); e2 ( 9.240931e-01 -3.675370e-01 1.047306e-01 );}

zone204{e1 ( 1.064289e-01 0.000000e+00 -9.390784e-01 ); e2 ( 9.390784e-01 -3.268099e-01 1.064289e-01 );}

zone205{e1 ( 1.079696e-01 0.000000e+00 -9.526728e-01 ); e2 ( 9.526728e-01 -2.841780e-01 1.079696e-01 );}

zone206{e1 ( 1.093269e-01 0.000000e+00 -9.646489e-01 ); e2 ( 9.646489e-01 -2.397920e-01 1.093269e-01 );}

zone207{e1 ( 1.104763e-01 0.000000e+00 -9.747907e-01 ); e2 ( 9.747907e-01 -1.938504e-01 1.104763e-01 );}

zone208{e1 ( 1.113958e-01 0.000000e+00 -9.829039e-01 ); e2 ( 9.829039e-01 -1.465979e-01 1.113958e-01 );}

zone209{e1 ( 1.120668e-01 0.000000e+00 -9.888246e-01 ); e2 ( 9.888246e-01 -9.832063e-02 1.120668e-01 );}

zone210{e1 ( 1.124753e-01 0.000000e+00 -9.924288e-01 ); e2 ( 9.924288e-01 -4.933950e-02 1.124753e-01 );}

zone211{e1 ( 1.126124e-01 0.000000e+00 -9.936390e-01 ); e2 ( 9.936390e-01 0.000000e+00 1.126124e-01 );}

zone212{e1 ( 1.124753e-01 0.000000e+00 -9.924288e-01 ); e2 ( 9.924288e-01 4.933950e-02 1.124753e-01 );}

zone213{e1 ( 1.120668e-01 0.000000e+00 -9.888246e-01 ); e2 ( 9.888246e-01 9.832063e-02 1.120668e-01 );}

zone214{e1 ( 1.113958e-01 0.000000e+00 -9.829039e-01 ); e2 ( 9.829039e-01 1.465979e-01 1.113958e-01 );}

zone215{e1 ( 1.104763e-01 0.000000e+00 -9.747907e-01 ); e2 ( 9.747907e-01 1.938504e-01 1.104763e-01 );}

zone216{e1 ( 1.093269e-01 0.000000e+00 -9.646489e-01 ); e2 ( 9.646489e-01 2.397920e-01 1.093269e-01 );}

zone217{e1 ( 1.079696e-01 0.000000e+00 -9.526728e-01 ); e2 ( 9.526728e-01 2.841780e-01 1.079696e-01 );}

zone218{e1 ( 1.064289e-01 0.000000e+00 -9.390784e-01 ); e2 ( 9.390784e-01 3.268099e-01 1.064289e-01 );}

zone219{e1 ( 1.047306e-01 0.000000e+00 -9.240931e-01 ); e2 ( 9.240931e-01 3.675370e-01 1.047306e-01 );}

zone220{e1 ( 2.551999e-01 -2.964698e-01 -8.211877e-01 ); e2 ( 8.730656e-01 4.774577e-01 9.894743e-02 );}

zone221{e1 ( 4.783014e-01 -8.746083e-01 0.000000e+00 ); e2 ( 8.746083e-01 4.783014e-01 7.929782e-02 );}

zone222{e1 ( 4.789607e-01 -8.758138e-01 0.000000e+00 ); e2 ( 8.758138e-01 4.789607e-01 5.955534e-02 );}

zone223{e1 ( 4.794333e-01 -8.766780e-01 0.000000e+00 ); e2 ( 8.766780e-01 4.794333e-01 3.974273e-02 );}

zone224{e1 ( 4.797175e-01 -8.771977e-01 0.000000e+00 ); e2 ( 8.771977e-01 4.797175e-01 1.988315e-02 );}

zone225{e1 ( 4.798123e-01 -8.773711e-01 0.000000e+00 ); e2 ( 8.773711e-01 4.798123e-01 0.000000e+00 );}

zone226{e1 ( 4.797175e-01 -8.771977e-01 0.000000e+00 ); e2 ( 8.771977e-01 4.797175e-01 -1.988315e-02 );}

zone227{e1 ( 4.794333e-01 -8.766780e-01 0.000000e+00 ); e2 ( 8.766780e-01 4.794333e-01 -3.974273e-02 );}

zone228{e1 ( 4.789607e-01 -8.758138e-01 0.000000e+00 ); e2 ( 8.758138e-01 4.789607e-01 -5.955534e-02 );}

zone229{e1 ( 4.783014e-01 -8.746083e-01 0.000000e+00 ); e2 ( 8.746083e-01 4.783014e-01 -7.929782e-02 );}

zone230{e1 ( 4.179220e-01 -6.414617e-01 5.922587e-01 ); e2 ( 8.730656e-01 4.774577e-01 -9.894743e-02 );}

zone231{e1 ( 1.009649e-01 -0.000000e+00 8.908667e-01 ); e2 ( 8.908667e-01 4.429025e-01 -1.009649e-01 );}

zone232{e1 ( 1.029007e-01 -0.000000e+00 9.079474e-01 ); e2 ( 9.079474e-01 4.062549e-01 -1.029007e-01 );}

zone233{e1 ( 1.047306e-01 -0.000000e+00 9.240931e-01 ); e2 ( 9.240931e-01 3.675370e-01 -1.047306e-01 );}

zone234{e1 ( 1.064289e-01 -0.000000e+00 9.390784e-01 ); e2 ( 9.390784e-01 3.268099e-01 -1.064289e-01 );}

zone235{e1 ( 1.079696e-01 -0.000000e+00 9.526728e-01 ); e2 ( 9.526728e-01 2.841780e-01 -1.079696e-01 );}

zone236{e1 ( 1.093269e-01 -0.000000e+00 9.646489e-01 ); e2 ( 9.646489e-01 2.397920e-01 -1.093269e-01 );}

zone237{e1 ( 1.104763e-01 -0.000000e+00 9.747907e-01 ); e2 ( 9.747907e-01 1.938504e-01 -1.104763e-01 );}

zone238{e1 ( 1.113958e-01 -0.000000e+00 9.829039e-01 ); e2 ( 9.829039e-01 1.465979e-01 -1.113958e-01 );}

zone239{e1 ( 1.120668e-01 -0.000000e+00 9.888246e-01 ); e2 ( 9.888246e-01 9.832063e-02 -1.120668e-01 );}

zone240{e1 ( 1.126124e-01 -0.000000e+00 9.936390e-01 ); e2 ( 9.936390e-01 0.000000e+00 -1.126124e-01 );}

zone241{e1 ( 1.124753e-01 -0.000000e+00 9.924288e-01 ); e2 ( 9.924288e-01 -4.933950e-02 -1.124753e-01 );}

zone242{e1 ( 1.120668e-01 -0.000000e+00 9.888246e-01 ); e2 ( 9.888246e-01 -9.832063e-02 -1.120668e-01 );}

zone243{e1 ( 1.113958e-01 -0.000000e+00 9.829039e-01 ); e2 ( 9.829039e-01 -1.465979e-01 -1.113958e-01 );}

zone244{e1 ( 1.104763e-01 -0.000000e+00 9.747907e-01 ); e2 ( 9.747907e-01 -1.938504e-01 -1.104763e-01 );}

zone245{e1 ( 1.093269e-01 -0.000000e+00 9.646489e-01 ); e2 ( 9.646489e-01 -2.397920e-01 -1.093269e-01 );}

zone246{e1 ( 1.079696e-01 -0.000000e+00 9.526728e-01 ); e2 ( 9.526728e-01 -2.841780e-01 -1.079696e-01 );}

zone247{e1 ( 1.064289e-01 -0.000000e+00 9.390784e-01 ); e2 ( 9.390784e-01 -3.268099e-01 -1.064289e-01 );}

zone248{e1 ( 1.047306e-01 -0.000000e+00 9.240931e-01 ); e2 ( 9.240931e-01 -3.675370e-01 -1.047306e-01 );}

zone249{e1 ( 1.029007e-01 -0.000000e+00 9.079474e-01 ); e2 ( 9.079474e-01 -4.062549e-01 -1.029007e-01 );}

zone250{e1 ( 3.176361e-01 4.224827e-01 7.640365e-01 ); e2 ( 8.730656e-01 -4.774577e-01 -9.894743e-02 );}

zone251{e1 ( 4.783014e-01 8.746083e-01 0.000000e+00 ); e2 ( 8.746083e-01 -4.783014e-01 -7.929782e-02 );}

zone252{e1 ( 4.789607e-01 8.758138e-01 0.000000e+00 ); e2 ( 8.758138e-01 -4.789607e-01 -5.955534e-02 );}

zone253{e1 ( 4.794333e-01 8.766780e-01 0.000000e+00 ); e2 ( 8.766780e-01 -4.794333e-01 -3.974273e-02 );}

zone254{e1 ( 4.797175e-01 8.771977e-01 0.000000e+00 ); e2 ( 8.771977e-01 -4.797175e-01 -1.988315e-02 );}

zone255{e1 ( 4.798123e-01 8.773711e-01 0.000000e+00 ); e2 ( 8.773711e-01 -4.798123e-01 0.000000e+00 );}

zone256{e1 ( 4.797175e-01 8.771977e-01 0.000000e+00 ); e2 ( 8.771977e-01 -4.797175e-01 1.988315e-02 );}

zone257{e1 ( 4.794333e-01 8.766780e-01 0.000000e+00 ); e2 ( 8.766780e-01 -4.794333e-01 3.974273e-02 );}

zone258{e1 ( 4.789607e-01 8.758138e-01 0.000000e+00 ); e2 ( 8.758138e-01 -4.789607e-01 5.955534e-02 );}

zone259{e1 ( 4.783014e-01 8.746083e-01 0.000000e+00 ); e2 ( 8.746083e-01 -4.783014e-01 7.929782e-02 );}

zone260{e1 ( 4.205104e-01 6.475832e-01 -5.855591e-01 ); e2 ( 8.730656e-01 -4.774577e-01 9.894744e-02 );}

zone261{e1 ( 1.009649e-01 0.000000e+00 -8.908667e-01 ); e2 ( 8.908667e-01 -4.429025e-01 1.009649e-01 );}

zone262{e1 ( 1.029007e-01 0.000000e+00 -9.079474e-01 ); e2 ( 9.079474e-01 -4.062549e-01 1.029007e-01 );}

zone263{e1 ( 1.047306e-01 0.000000e+00 -9.240931e-01 ); e2 ( 9.240931e-01 -3.675370e-01 1.047306e-01 );}

zone264{e1 ( 1.064289e-01 0.000000e+00 -9.390784e-01 ); e2 ( 9.390784e-01 -3.268099e-01 1.064289e-01 );}

zone265{e1 ( 1.079696e-01 0.000000e+00 -9.526728e-01 ); e2 ( 9.526728e-01 -2.841780e-01 1.079696e-01 );}

zone266{e1 ( 1.093269e-01 0.000000e+00 -9.646489e-01 ); e2 ( 9.646489e-01 -2.397920e-01 1.093269e-01 );}

zone267{e1 ( 1.104763e-01 0.000000e+00 -9.747907e-01 ); e2 ( 9.747907e-01 -1.938504e-01 1.104763e-01 );}

zone268{e1 ( 1.113958e-01 0.000000e+00 -9.829039e-01 ); e2 ( 9.829039e-01 -1.465979e-01 1.113958e-01 );}

zone269{e1 ( 1.120668e-01 0.000000e+00 -9.888246e-01 ); e2 ( 9.888246e-01 -9.832063e-02 1.120668e-01 );}

zone270{e1 ( 1.124753e-01 0.000000e+00 -9.924288e-01 ); e2 ( 9.924288e-01 -4.933950e-02 1.124753e-01 );}

zone271{e1 ( 1.126124e-01 0.000000e+00 -9.936390e-01 ); e2 ( 9.936390e-01 0.000000e+00 1.126124e-01 );}

zone272{e1 ( 1.124753e-01 0.000000e+00 -9.924288e-01 ); e2 ( 9.924288e-01 4.933950e-02 1.124753e-01 );}

zone273{e1 ( 1.120668e-01 0.000000e+00 -9.888246e-01 ); e2 ( 9.888246e-01 9.832063e-02 1.120668e-01 );}

zone274{e1 ( 1.113958e-01 0.000000e+00 -9.829039e-01 ); e2 ( 9.829039e-01 1.465979e-01 1.113958e-01 );}

zone275{e1 ( 1.104763e-01 0.000000e+00 -9.747907e-01 ); e2 ( 9.747907e-01 1.938504e-01 1.104763e-01 );}

zone276{e1 ( 1.093269e-01 0.000000e+00 -9.646489e-01 ); e2 ( 9.646489e-01 2.397920e-01 1.093269e-01 );}

zone277{e1 ( 1.079696e-01 0.000000e+00 -9.526728e-01 ); e2 ( 9.526728e-01 2.841780e-01 1.079696e-01 );}

zone278{e1 ( 1.064289e-01 0.000000e+00 -9.390784e-01 ); e2 ( 9.390784e-01 3.268099e-01 1.064289e-01 );}

zone279{e1 ( 1.047306e-01 0.000000e+00 -9.240931e-01 ); e2 ( 9.240931e-01 3.675370e-01 1.047306e-01 );}

zone280{e1 ( 2.579865e-01 -3.019820e-01 -8.191766e-01 ); e2 ( 8.730656e-01 4.774577e-01 9.894743e-02 );}

zone281{e1 ( 4.783014e-01 -8.746083e-01 0.000000e+00 ); e2 ( 8.746083e-01 4.783014e-01 7.929782e-02 );}
