FoamFile
{
	version	2.0;
	format	ascii;
	class	polyBoundaryMesh;
	location	"constant/polyMesh";
	object	boundary;
}
3
(
	inlet
	{
		type	patch;
		startFace	187200;
		nFaces	1600;
	}
	outlet
	{
		type	patch;
		startFace	188800;
		nFaces	1600;
	}
	boundaries
	{
		type	patch;
		startFace	190400;
		nFaces	6400;
	}
)